data_final_Br-Cu-SABVOH01
_audit_creation_date              2022-12-15
_audit_creation_method            'Materials Studio'
_symmetry_space_group_name_H-M    'P1'
_symmetry_Int_Tables_number       1
_symmetry_cell_setting            triclinic
loop_
_symmetry_equiv_pos_as_xyz
  x,y,z
_cell_length_a                    34.5314
_cell_length_b                    37.3192
_cell_length_c                    26.7193
_cell_angle_alpha                 90.0000
_cell_angle_beta                  90.0000
_cell_angle_gamma                 90.0000
loop_
_atom_site_label
_atom_site_type_symbol
_atom_site_fract_x
_atom_site_fract_y
_atom_site_fract_z
_atom_site_U_iso_or_equiv
_atom_site_adp_type
_atom_site_occupancy
Cu1    Cu    0.24646   0.16914   0.12909   0.00000  Uiso   1.00
Cu2    Cu    0.24858   0.16120   0.37758   0.00000  Uiso   1.00
Cu3    Cu    0.24884   0.16379   0.00455   0.00000  Uiso   1.00
Cu4    Cu    0.24558   0.16662   0.25143   0.00000  Uiso   1.00
Cu5    Cu    0.24983   0.17223   0.63173   0.00000  Uiso   1.00
Cu6    Cu    0.24636   0.16278   0.75318   0.00000  Uiso   1.00
Cu7    Cu    0.24739   0.16284   0.50515   0.00000  Uiso   1.00
Cu8    Cu    0.00010   0.33004   0.00846   0.00000  Uiso   1.00
Cu9    Cu    0.24731   0.49928   0.38729   0.00000  Uiso   1.00
Cu10   Cu    0.24580   0.50494   0.13924   0.00000  Uiso   1.00
Cu11   Cu    0.24826   0.50431   0.01316   0.00000  Uiso   1.00
Cu12   Cu    0.24158   0.49745   0.26111   0.00000  Uiso   1.00
Cu13   Cu    0.24791   0.49469   0.63654   0.00000  Uiso   1.00
Cu14   Cu    0.24607   0.50217   0.88816   0.00000  Uiso   1.00
Cu15   Cu    0.24933   0.49721   0.76355   0.00000  Uiso   1.00
Cu16   Cu    0.24889   0.49980   0.51291   0.00000  Uiso   1.00
Cu17   Cu    0.00007   0.66381   0.63699   0.00000  Uiso   1.00
Cu18   Cu    0.24953   0.84213   0.12808   0.00000  Uiso   1.00
Cu19   Cu    0.24602   0.83657   0.24945   0.00000  Uiso   1.00
Cu20   Cu    0.24431   0.83122   0.00223   0.00000  Uiso   1.00
Cu21   Cu    0.24516   0.83813   0.37753   0.00000  Uiso   1.00
Cu22   Cu    0.24506   0.82971   0.87855   0.00000  Uiso   1.00
Cu23   Cu    0.24644   0.83741   0.62694   0.00000  Uiso   1.00
Cu24   Cu    0.24499   0.83500   0.50156   0.00000  Uiso   1.00
Cu25   Cu    0.24904   0.83216   0.75621   0.00000  Uiso   1.00
Cu26   Cu    0.49965   0.00055   0.25618   0.00000  Uiso   1.00
Cu27   Cu    0.49748   0.00088   0.13011   0.00000  Uiso   1.00
Cu28   Cu    0.25055   0.16472   0.87709   0.00000  Uiso   1.00
Cu29   Cu    0.49349   0.00013   0.50640   0.00000  Uiso   1.00
Cu30   Cu    0.49417   0.33788   0.01093   0.00000  Uiso   1.00
Cu31   Cu    0.49306   0.33486   0.38859   0.00000  Uiso   1.00
Cu32   Cu    0.49690   0.33575   0.13636   0.00000  Uiso   1.00
Cu33   Cu    0.49460   0.33821   0.26224   0.00000  Uiso   1.00
Cu34   Cu    0.49803   0.33619   0.76463   0.00000  Uiso   1.00
Cu35   Cu    0.49445   0.33259   0.51424   0.00000  Uiso   1.00
Cu36   Cu    0.49692   0.33980   0.88594   0.00000  Uiso   1.00
Cu37   Cu    0.49796   0.33120   0.63870   0.00000  Uiso   1.00
Cu38   Cu    0.49540   0.66871   0.38092   0.00000  Uiso   1.00
Cu39   Cu    0.49617   0.66602   0.25843   0.00000  Uiso   1.00
Cu40   Cu    0.49468   0.66874   0.13769   0.00000  Uiso   1.00
Cu41   Cu    0.49968   0.66600   0.01154   0.00000  Uiso   1.00
Cu42   Cu    0.49627   0.66634   0.75717   0.00000  Uiso   1.00
Cu43   Cu    0.49652   0.66721   0.63160   0.00000  Uiso   1.00
Cu44   Cu    0.49776   0.66683   0.88261   0.00000  Uiso   1.00
Cu45   Cu    0.49747   0.66861   0.50639   0.00000  Uiso   1.00
Cu46   Cu    0.49545   0.99828   0.00460   0.00000  Uiso   1.00
Cu47   Cu    0.49453   0.99213   0.38370   0.00000  Uiso   1.00
Cu48   Cu    0.49951   0.99566   0.75600   0.00000  Uiso   1.00
Cu49   Cu    0.49646   0.99682   0.87986   0.00000  Uiso   1.00
Cu50   Cu    0.49839   0.99831   0.63125   0.00000  Uiso   1.00
Cu51   Cu    0.74502   0.16871   0.25483   0.00000  Uiso   1.00
Cu52   Cu    0.74167   0.16801   0.38016   0.00000  Uiso   1.00
Cu53   Cu    0.74337   0.16532   0.00466   0.00000  Uiso   1.00
Cu54   Cu    0.74677   0.16809   0.13318   0.00000  Uiso   1.00
Cu55   Cu    0.74664   0.16941   0.50564   0.00000  Uiso   1.00
Cu56   Cu    0.74645   0.16843   0.75492   0.00000  Uiso   1.00
Cu57   Cu    0.74413   0.16957   0.87836   0.00000  Uiso   1.00
Cu58   Cu    0.74568   0.16747   0.63167   0.00000  Uiso   1.00
Cu59   Cu    0.74176   0.50117   0.25856   0.00000  Uiso   1.00
Cu60   Cu    0.74658   0.50284   0.01005   0.00000  Uiso   1.00
Cu61   Cu    0.74571   0.49979   0.13525   0.00000  Uiso   1.00
Cu62   Cu    0.74372   0.49848   0.38442   0.00000  Uiso   1.00
Cu63   Cu    0.74629   0.50049   0.76240   0.00000  Uiso   1.00
Cu64   Cu    0.74783   0.49987   0.88473   0.00000  Uiso   1.00
Cu65   Cu    0.74861   0.50208   0.63657   0.00000  Uiso   1.00
Cu66   Cu    0.74607   0.50274   0.51127   0.00000  Uiso   1.00
Cu67   Cu    0.74438   0.83142   0.38406   0.00000  Uiso   1.00
Cu68   Cu    0.74698   0.83311   0.00715   0.00000  Uiso   1.00
Cu69   Cu    0.74836   0.83454   0.13393   0.00000  Uiso   1.00
Cu70   Cu    0.74653   0.83147   0.26034   0.00000  Uiso   1.00
Cu71   Cu    0.74921   0.83027   0.88233   0.00000  Uiso   1.00
Cu72   Cu    0.74804   0.83109   0.51038   0.00000  Uiso   1.00
Cu73   Cu    0.74768   0.82489   0.75674   0.00000  Uiso   1.00
Cu74   Cu    0.74895   0.83044   0.63411   0.00000  Uiso   1.00
Cu75   Cu    0.99282   0.00225   0.37361   0.00000  Uiso   1.00
Cu76   Cu    0.99486   0.00065   0.24839   0.00000  Uiso   1.00
Cu77   Cu    0.99465   0.00139   0.50186   0.00000  Uiso   1.00
Cu78   Cu    0.99530   0.33227   0.13324   0.00000  Uiso   1.00
Cu79   Cu    0.99333   0.33200   0.25747   0.00000  Uiso   1.00
Cu80   Cu    0.99389   0.33272   0.38342   0.00000  Uiso   1.00
Cu81   Cu    0.99563   0.33476   0.63147   0.00000  Uiso   1.00
Cu82   Cu    0.99744   0.33615   0.75624   0.00000  Uiso   1.00
Cu83   Cu    0.99838   0.33533   0.88339   0.00000  Uiso   1.00
Cu84   Cu    0.99843   0.32826   0.51045   0.00000  Uiso   1.00
Cu85   Cu    0.99791   0.67258   0.13548   0.00000  Uiso   1.00
Cu86   Cu    0.99260   0.67102   0.26017   0.00000  Uiso   1.00
Cu87   Cu    0.99825   0.66854   0.39018   0.00000  Uiso   1.00
Cu88   Cu    0.99906   0.67396   0.00998   0.00000  Uiso   1.00
Cu89   Cu    0.99720   0.66152   0.76132   0.00000  Uiso   1.00
Cu90   Cu    0.99692   0.66429   0.51416   0.00000  Uiso   1.00
Cu91   Cu    0.99821   0.66580   0.88462   0.00000  Uiso   1.00
Cu92   Cu    0.99579   0.99959   0.12684   0.00000  Uiso   1.00
Cu93   Cu    0.99356   0.99280   0.62579   0.00000  Uiso   1.00
Cu94   Cu    0.99771   0.99814   0.87556   0.00000  Uiso   1.00
Cu95   Cu    0.99874   0.99960   0.75204   0.00000  Uiso   1.00
Cu96   Cu    0.99743   0.99781   0.99967   0.00000  Uiso   1.00
Br97   Br    0.13139   0.13984   0.15625   0.00000  Uiso   1.00
Br98   Br    0.05605   0.10697   0.38710   0.00000  Uiso   1.00
Br99   Br    0.18985   0.05176   0.22670   0.00000  Uiso   1.00
Br100  Br    0.10611   0.03472   0.46634   0.00000  Uiso   1.00
Br101  Br    0.11702   0.02403   0.97055   0.00000  Uiso   1.00
Br102  Br    0.13176   0.12937   0.67503   0.00000  Uiso   1.00
Br103  Br    0.04916   0.11285   0.87782   0.00000  Uiso   1.00
Br104  Br    0.20416   0.04009   0.77242   0.00000  Uiso   1.00
Br105  Br    0.19787   0.37933   0.25392   0.00000  Uiso   1.00
Br106  Br    0.19022   0.27387   0.34719   0.00000  Uiso   1.00
Br107  Br    0.19617   0.27829   0.10925   0.00000  Uiso   1.00
Br108  Br    0.07273   0.23771   0.03735   0.00000  Uiso   1.00
Br109  Br    0.06796   0.24106   0.28750   0.00000  Uiso   1.00
Br110  Br    0.19047   0.38723   0.47657   0.00000  Uiso   1.00
Br111  Br    0.05825   0.22795   0.52482   0.00000  Uiso   1.00
Br112  Br    0.06507   0.24076   0.78865   0.00000  Uiso   1.00
Br113  Br    0.20024   0.39507   0.98707   0.00000  Uiso   1.00
Br114  Br    0.19345   0.27069   0.85308   0.00000  Uiso   1.00
Br115  Br    0.19572   0.28327   0.61264   0.00000  Uiso   1.00
Br116  Br    0.20253   0.38020   0.75789   0.00000  Uiso   1.00
Br117  Br    0.06487   0.57914   0.05405   0.00000  Uiso   1.00
Br118  Br    0.05231   0.56432   0.28495   0.00000  Uiso   1.00
Br119  Br    0.05788   0.44104   0.40425   0.00000  Uiso   1.00
Br120  Br    0.06148   0.43144   0.15670   0.00000  Uiso   1.00
Br121  Br    0.16908   0.59204   0.84545   0.00000  Uiso   1.00
Br122  Br    0.05556   0.55721   0.52446   0.00000  Uiso   1.00
Br123  Br    0.06651   0.55985   0.78774   0.00000  Uiso   1.00
Br124  Br    0.07368   0.42538   0.66721   0.00000  Uiso   1.00
Br125  Br    0.06302   0.43660   0.91287   0.00000  Uiso   1.00
Br126  Br    0.18972   0.59897   0.61093   0.00000  Uiso   1.00
Br127  Br    0.19851   0.71908   0.39091   0.00000  Uiso   1.00
Br128  Br    0.19382   0.60953   0.36881   0.00000  Uiso   1.00
Br129  Br    0.05024   0.77574   0.25152   0.00000  Uiso   1.00
Br130  Br    0.18875   0.61356   0.12472   0.00000  Uiso   1.00
Br131  Br    0.12451   0.68023   0.99155   0.00000  Uiso   1.00
Br132  Br    0.06127   0.76537   0.73218   0.00000  Uiso   1.00
Br133  Br    0.19681   0.71679   0.89430   0.00000  Uiso   1.00
Br134  Br    0.20652   0.71063   0.61210   0.00000  Uiso   1.00
Br135  Br    0.04929   0.78081   0.52120   0.00000  Uiso   1.00
Br136  Br    0.19037   0.94544   0.10389   0.00000  Uiso   1.00
Br137  Br    0.18323   0.93984   0.35356   0.00000  Uiso   1.00
Br138  Br    0.05606   0.89666   0.26922   0.00000  Uiso   1.00
Br139  Br    0.12707   0.81960   0.14283   0.00000  Uiso   1.00
Br140  Br    0.05623   0.88970   0.01627   0.00000  Uiso   1.00
Br141  Br    0.13779   0.87429   0.79753   0.00000  Uiso   1.00
Br142  Br    0.19572   0.95128   0.86478   0.00000  Uiso   1.00
Br143  Br    0.12360   0.97580   0.59202   0.00000  Uiso   1.00
Br144  Br    0.05833   0.89748   0.52738   0.00000  Uiso   1.00
Br145  Br    0.37081   0.14413   0.22617   0.00000  Uiso   1.00
Br146  Br    0.31008   0.06235   0.15369   0.00000  Uiso   1.00
Br147  Br    0.44211   0.10928   0.49070   0.00000  Uiso   1.00
Br148  Br    0.38301   0.16623   0.37868   0.00000  Uiso   1.00
Br149  Br    0.36655   0.00741   0.38949   0.00000  Uiso   1.00
Br150  Br    0.44526   0.09980   0.72567   0.00000  Uiso   1.00
Br151  Br    0.31130   0.06705   0.66172   0.00000  Uiso   1.00
Br152  Br    0.30975   0.06472   0.89573   0.00000  Uiso   1.00
Br153  Br    0.37383   0.19376   0.84105   0.00000  Uiso   1.00
Br154  Br    0.43857   0.10574   0.97668   0.00000  Uiso   1.00
Br155  Br    0.30001   0.27651   0.27084   0.00000  Uiso   1.00
Br156  Br    0.38443   0.29859   0.04539   0.00000  Uiso   1.00
Br157  Br    0.30713   0.39879   0.24318   0.00000  Uiso   1.00
Br158  Br    0.44548   0.22617   0.12127   0.00000  Uiso   1.00
Br159  Br    0.37694   0.35350   0.15803   0.00000  Uiso   1.00
Br160  Br    0.45137   0.22006   0.63164   0.00000  Uiso   1.00
Br161  Br    0.30814   0.26213   0.78505   0.00000  Uiso   1.00
Br162  Br    0.38012   0.34784   0.65392   0.00000  Uiso   1.00
Br163  Br    0.36551   0.31209   0.52000   0.00000  Uiso   1.00
Br164  Br    0.44592   0.45047   0.39459   0.00000  Uiso   1.00
Br165  Br    0.38052   0.49009   0.22765   0.00000  Uiso   1.00
Br166  Br    0.38217   0.50765   0.03442   0.00000  Uiso   1.00
Br167  Br    0.44684   0.55389   0.37429   0.00000  Uiso   1.00
Br168  Br    0.37187   0.48828   0.49635   0.00000  Uiso   1.00
Br169  Br    0.43044   0.43765   0.72125   0.00000  Uiso   1.00
Br170  Br    0.44319   0.55789   0.60786   0.00000  Uiso   1.00
Br171  Br    0.43661   0.56295   0.85418   0.00000  Uiso   1.00
Br172  Br    0.31340   0.59781   0.78569   0.00000  Uiso   1.00
Br173  Br    0.33510   0.42650   0.93765   0.00000  Uiso   1.00
Br174  Br    0.30593   0.72876   0.24075   0.00000  Uiso   1.00
Br175  Br    0.43599   0.78034   0.15958   0.00000  Uiso   1.00
Br176  Br    0.37096   0.66140   0.16424   0.00000  Uiso   1.00
Br177  Br    0.44511   0.78214   0.39999   0.00000  Uiso   1.00
Br178  Br    0.31801   0.74447   0.46688   0.00000  Uiso   1.00
Br179  Br    0.31710   0.60731   0.03305   0.00000  Uiso   1.00
Br180  Br    0.43450   0.76876   0.66159   0.00000  Uiso   1.00
Br181  Br    0.37153   0.67225   0.86280   0.00000  Uiso   1.00
Br182  Br    0.32399   0.74457   0.96715   0.00000  Uiso   1.00
Br183  Br    0.30285   0.60859   0.51981   0.00000  Uiso   1.00
Br184  Br    0.32154   0.92841   0.29099   0.00000  Uiso   1.00
Br185  Br    0.43852   0.87959   0.36787   0.00000  Uiso   1.00
Br186  Br    0.44124   0.89833   0.10195   0.00000  Uiso   1.00
Br187  Br    0.43930   0.89425   0.59623   0.00000  Uiso   1.00
Br188  Br    0.32102   0.92385   0.78907   0.00000  Uiso   1.00
Br189  Br    0.38575   0.83480   0.76798   0.00000  Uiso   1.00
Br190  Br    0.30922   0.93828   0.52918   0.00000  Uiso   1.00
Br191  Br    0.45705   0.87258   0.88481   0.00000  Uiso   1.00
Br192  Br    0.29993   0.94178   0.99704   0.00000  Uiso   1.00
Br193  Br    0.62373   0.01932   0.41497   0.00000  Uiso   1.00
Br194  Br    0.68574   0.06327   0.16198   0.00000  Uiso   1.00
Br195  Br    0.62684   0.14103   0.23029   0.00000  Uiso   1.00
Br196  Br    0.55885   0.10224   0.47905   0.00000  Uiso   1.00
Br197  Br    0.68944   0.05903   0.65191   0.00000  Uiso   1.00
Br198  Br    0.62862   0.13744   0.73236   0.00000  Uiso   1.00
Br199  Br    0.61481   0.02716   0.92314   0.00000  Uiso   1.00
Br200  Br    0.56400   0.09761   0.97702   0.00000  Uiso   1.00
Br201  Br    0.57320   0.24348   0.29428   0.00000  Uiso   1.00
Br202  Br    0.56154   0.23952   0.03505   0.00000  Uiso   1.00
Br203  Br    0.69181   0.27915   0.36111   0.00000  Uiso   1.00
Br204  Br    0.68265   0.27065   0.09491   0.00000  Uiso   1.00
Br205  Br    0.69479   0.38401   0.14615   0.00000  Uiso   1.00
Br206  Br    0.68732   0.39341   0.41530   0.00000  Uiso   1.00
Br207  Br    0.67711   0.26913   0.60191   0.00000  Uiso   1.00
Br208  Br    0.57287   0.24638   0.80611   0.00000  Uiso   1.00
Br209  Br    0.69478   0.28064   0.86214   0.00000  Uiso   1.00
Br210  Br    0.56116   0.23620   0.53197   0.00000  Uiso   1.00
Br211  Br    0.69575   0.38513   0.65323   0.00000  Uiso   1.00
Br212  Br    0.69358   0.39186   0.92051   0.00000  Uiso   1.00
Br213  Br    0.57017   0.57365   0.34818   0.00000  Uiso   1.00
Br214  Br    0.54792   0.44513   0.25132   0.00000  Uiso   1.00
Br215  Br    0.56010   0.55799   0.10790   0.00000  Uiso   1.00
Br216  Br    0.56013   0.44526   0.99053   0.00000  Uiso   1.00
Br217  Br    0.57301   0.42693   0.72971   0.00000  Uiso   1.00
Br218  Br    0.56539   0.57178   0.59819   0.00000  Uiso   1.00
Br219  Br    0.55478   0.56084   0.87438   0.00000  Uiso   1.00
Br220  Br    0.55251   0.43935   0.50547   0.00000  Uiso   1.00
Br221  Br    0.61209   0.69797   0.17913   0.00000  Uiso   1.00
Br222  Br    0.55693   0.77069   0.24511   0.00000  Uiso   1.00
Br223  Br    0.69769   0.71679   0.40046   0.00000  Uiso   1.00
Br224  Br    0.69194   0.61142   0.27790   0.00000  Uiso   1.00
Br225  Br    0.57694   0.75470   0.46669   0.00000  Uiso   1.00
Br226  Br    0.70319   0.62101   0.00857   0.00000  Uiso   1.00
Br227  Br    0.69199   0.72204   0.65898   0.00000  Uiso   1.00
Br228  Br    0.57465   0.75806   0.72144   0.00000  Uiso   1.00
Br229  Br    0.68152   0.72761   0.92141   0.00000  Uiso   1.00
Br230  Br    0.68632   0.60860   0.54145   0.00000  Uiso   1.00
Br231  Br    0.68511   0.60412   0.79025   0.00000  Uiso   1.00
Br232  Br    0.70076   0.95017   0.27250   0.00000  Uiso   1.00
Br233  Br    0.62894   0.85163   0.36182   0.00000  Uiso   1.00
Br234  Br    0.55120   0.89145   0.12749   0.00000  Uiso   1.00
Br235  Br    0.61073   0.96155   0.04902   0.00000  Uiso   1.00
Br236  Br    0.69530   0.94915   0.77377   0.00000  Uiso   1.00
Br237  Br    0.64324   0.86589   0.84451   0.00000  Uiso   1.00
Br238  Br    0.56025   0.89229   0.61478   0.00000  Uiso   1.00
Br239  Br    0.60976   0.96660   0.55114   0.00000  Uiso   1.00
Br240  Br    0.63399   0.80472   0.97928   0.00000  Uiso   1.00
Br241  Br    0.87034   0.14792   0.48292   0.00000  Uiso   1.00
Br242  Br    0.81419   0.07362   0.15820   0.00000  Uiso   1.00
Br243  Br    0.82039   0.07688   0.41651   0.00000  Uiso   1.00
Br244  Br    0.93037   0.10811   0.21401   0.00000  Uiso   1.00
Br245  Br    0.81064   0.06596   0.90886   0.00000  Uiso   1.00
Br246  Br    0.93766   0.11048   0.73376   0.00000  Uiso   1.00
Br247  Br    0.93234   0.09746   0.96581   0.00000  Uiso   1.00
Br248  Br    0.87423   0.02090   0.65794   0.00000  Uiso   1.00
Br249  Br    0.95175   0.21136   0.11709   0.00000  Uiso   1.00
Br250  Br    0.81601   0.26436   0.27760   0.00000  Uiso   1.00
Br251  Br    0.93821   0.22889   0.35611   0.00000  Uiso   1.00
Br252  Br    0.82288   0.25921   0.03781   0.00000  Uiso   1.00
Br253  Br    0.80574   0.39810   0.23362   0.00000  Uiso   1.00
Br254  Br    0.88455   0.36734   0.47342   0.00000  Uiso   1.00
Br255  Br    0.81018   0.26897   0.53103   0.00000  Uiso   1.00
Br256  Br    0.81019   0.25902   0.78788   0.00000  Uiso   1.00
Br257  Br    0.94081   0.22562   0.84997   0.00000  Uiso   1.00
Br258  Br    0.89012   0.37300   0.96515   0.00000  Uiso   1.00
Br259  Br    0.92693   0.24179   0.59758   0.00000  Uiso   1.00
Br260  Br    0.81275   0.39803   0.74203   0.00000  Uiso   1.00
Br261  Br    0.94146   0.44961   0.38938   0.00000  Uiso   1.00
Br262  Br    0.94423   0.56474   0.02586   0.00000  Uiso   1.00
Br263  Br    0.86389   0.52850   0.29241   0.00000  Uiso   1.00
Br264  Br    0.86694   0.47847   0.16275   0.00000  Uiso   1.00
Br265  Br    0.94597   0.44772   0.90755   0.00000  Uiso   1.00
Br266  Br    0.86488   0.47112   0.67415   0.00000  Uiso   1.00
Br267  Br    0.93909   0.56193   0.79458   0.00000  Uiso   1.00
Br268  Br    0.93400   0.55921   0.53620   0.00000  Uiso   1.00
Br269  Br    0.81695   0.59843   0.60636   0.00000  Uiso   1.00
Br270  Br    0.88797   0.62923   0.08973   0.00000  Uiso   1.00
Br271  Br    0.89381   0.70590   0.42578   0.00000  Uiso   1.00
Br272  Br    0.94768   0.79574   0.00080   0.00000  Uiso   1.00
Br273  Br    0.81305   0.72829   0.15053   0.00000  Uiso   1.00
Br274  Br    0.80475   0.60400   0.36880   0.00000  Uiso   1.00
Br275  Br    0.89162   0.69696   0.67184   0.00000  Uiso   1.00
Br276  Br    0.80541   0.60630   0.86139   0.00000  Uiso   1.00
Br277  Br    0.81747   0.73899   0.92039   0.00000  Uiso   1.00
Br278  Br    0.94143   0.76990   0.73728   0.00000  Uiso   1.00
Br279  Br    0.81456   0.93467   0.02810   0.00000  Uiso   1.00
Br280  Br    0.93404   0.89509   0.09675   0.00000  Uiso   1.00
Br281  Br    0.81894   0.92413   0.29068   0.00000  Uiso   1.00
Br282  Br    0.93707   0.89033   0.36046   0.00000  Uiso   1.00
Br283  Br    0.87202   0.81396   0.48782   0.00000  Uiso   1.00
Br284  Br    0.86235   0.80372   0.22542   0.00000  Uiso   1.00
Br285  Br    0.94319   0.88733   0.85554   0.00000  Uiso   1.00
Br286  Br    0.94316   0.88551   0.60153   0.00000  Uiso   1.00
Br287  Br    0.82676   0.91136   0.79690   0.00000  Uiso   1.00
Br288  Br    0.81134   0.93445   0.53543   0.00000  Uiso   1.00
H289   H     0.07232   0.08837   0.12586   0.00000  Uiso   1.00
H290   H     0.13602   0.12644   0.37146   0.00000  Uiso   1.00
H291   H     0.11884   0.01895   0.26438   0.00000  Uiso   1.00
H292   H     0.00466   0.04553   0.18567   0.00000  Uiso   1.00
H293   H     0.00655   0.04391   0.43836   0.00000  Uiso   1.00
H294   H     0.17325   0.07266   0.00028   0.00000  Uiso   1.00
H295   H     0.00510   0.04538   0.93601   0.00000  Uiso   1.00
H296   H     0.07871   0.07625   0.64642   0.00000  Uiso   1.00
H297   H     0.12748   0.13558   0.86871   0.00000  Uiso   1.00
H298   H     0.12203   0.01993   0.77448   0.00000  Uiso   1.00
H299   H     0.16794   0.08075   0.50229   0.00000  Uiso   1.00
H300   H     0.00112   0.28517   0.07268   0.00000  Uiso   1.00
H301   H     0.11260   0.29802   0.37521   0.00000  Uiso   1.00
H302   H     0.11938   0.30609   0.13417   0.00000  Uiso   1.00
H303   H     0.14067   0.21029   0.25541   0.00000  Uiso   1.00
H304   H     0.11558   0.35507   0.27562   0.00000  Uiso   1.00
H305   H     0.10542   0.37197   0.49852   0.00000  Uiso   1.00
H306   H     0.00965   0.37608   0.44778   0.00000  Uiso   1.00
H307   H     0.14612   0.21396   0.01076   0.00000  Uiso   1.00
H308   H     0.11934   0.36590   0.00635   0.00000  Uiso   1.00
H309   H     0.12105   0.36020   0.77079   0.00000  Uiso   1.00
H310   H     0.11527   0.30583   0.63223   0.00000  Uiso   1.00
H311   H     0.00547   0.28830   0.57606   0.00000  Uiso   1.00
H312   H     0.00266   0.29065   0.82302   0.00000  Uiso   1.00
H313   H     0.11370   0.29563   0.87178   0.00000  Uiso   1.00
H314   H     0.01145   0.37524   0.94959   0.00000  Uiso   1.00
H315   H     0.13978   0.21151   0.75877   0.00000  Uiso   1.00
H316   H     0.14072   0.20696   0.50174   0.00000  Uiso   1.00
H317   H     0.14225   0.54844   0.02524   0.00000  Uiso   1.00
H318   H     0.13971   0.45863   0.38798   0.00000  Uiso   1.00
H319   H     0.13726   0.45611   0.14015   0.00000  Uiso   1.00
H320   H     0.13479   0.54607   0.27253   0.00000  Uiso   1.00
H321   H     0.24023   0.54561   0.32126   0.00000  Uiso   1.00
H322   H     0.24985   0.45245   0.19852   0.00000  Uiso   1.00
H323   H     0.13827   0.53540   0.76285   0.00000  Uiso   1.00
H324   H     0.14240   0.45745   0.89365   0.00000  Uiso   1.00
H325   H     0.14625   0.44780   0.63769   0.00000  Uiso   1.00
H326   H     0.13559   0.53869   0.51833   0.00000  Uiso   1.00
H327   H     0.24438   0.54626   0.82414   0.00000  Uiso   1.00
H328   H     0.11076   0.63488   0.13082   0.00000  Uiso   1.00
H329   H     0.07114   0.76072   0.12566   0.00000  Uiso   1.00
H330   H     0.18622   0.72842   0.01965   0.00000  Uiso   1.00
H331   H     0.12185   0.69420   0.36790   0.00000  Uiso   1.00
H332   H     0.11954   0.63539   0.39479   0.00000  Uiso   1.00
H333   H     0.00857   0.70950   0.45408   0.00000  Uiso   1.00
H334   H     0.01099   0.71606   0.19967   0.00000  Uiso   1.00
H335   H     0.00980   0.63125   0.07255   0.00000  Uiso   1.00
H336   H     0.12573   0.68547   0.60910   0.00000  Uiso   1.00
H337   H     0.13738   0.78638   0.74811   0.00000  Uiso   1.00
H338   H     0.09309   0.61581   0.87650   0.00000  Uiso   1.00
H339   H     0.11268   0.62344   0.63146   0.00000  Uiso   1.00
H340   H     0.12034   0.69316   0.87497   0.00000  Uiso   1.00
H341   H     0.01315   0.71418   0.94430   0.00000  Uiso   1.00
H342   H     0.01007   0.62035   0.83037   0.00000  Uiso   1.00
H343   H     0.00419   0.70517   0.70498   0.00000  Uiso   1.00
H344   H     0.10870   0.96452   0.12092   0.00000  Uiso   1.00
H345   H     0.10851   0.96543   0.37483   0.00000  Uiso   1.00
H346   H     0.14078   0.87572   0.25379   0.00000  Uiso   1.00
H347   H     0.24569   0.88306   0.31662   0.00000  Uiso   1.00
H348   H     0.01073   0.95728   0.06536   0.00000  Uiso   1.00
H349   H     0.00811   0.95854   0.31390   0.00000  Uiso   1.00
H350   H     0.24979   0.88025   0.05995   0.00000  Uiso   1.00
H351   H     0.13776   0.80069   0.26296   0.00000  Uiso   1.00
H352   H     0.07966   0.92224   0.75911   0.00000  Uiso   1.00
H353   H     0.11378   0.96871   0.87488   0.00000  Uiso   1.00
H354   H     0.17880   0.92561   0.62656   0.00000  Uiso   1.00
H355   H     0.00440   0.95127   0.56205   0.00000  Uiso   1.00
H356   H     0.12748   0.80467   0.52623   0.00000  Uiso   1.00
H357   H     0.13678   0.87870   0.51431   0.00000  Uiso   1.00
H358   H     0.01007   0.95629   0.81477   0.00000  Uiso   1.00
H359   H     0.13382   0.86834   0.99190   0.00000  Uiso   1.00
H360   H     0.25091   0.12023   0.18783   0.00000  Uiso   1.00
H361   H     0.38654   0.03979   0.13236   0.00000  Uiso   1.00
H362   H     0.43166   0.09838   0.27049   0.00000  Uiso   1.00
H363   H     0.36438   0.13156   0.00231   0.00000  Uiso   1.00
H364   H     0.31615   0.06259   0.36922   0.00000  Uiso   1.00
H365   H     0.25178   0.11753   0.44294   0.00000  Uiso   1.00
H366   H     0.49495   0.04486   0.44063   0.00000  Uiso   1.00
H367   H     0.25331   0.11990   0.68381   0.00000  Uiso   1.00
H368   H     0.39351   0.04807   0.64835   0.00000  Uiso   1.00
H369   H     0.38397   0.03567   0.87615   0.00000  Uiso   1.00
H370   H     0.36504   0.13046   0.74708   0.00000  Uiso   1.00
H371   H     0.36042   0.12320   0.50347   0.00000  Uiso   1.00
H372   H     0.36859   0.19528   0.63736   0.00000  Uiso   1.00
H373   H     0.26119   0.12205   0.93853   0.00000  Uiso   1.00
H374   H     0.49707   0.04325   0.94267   0.00000  Uiso   1.00
H375   H     0.26696   0.20760   0.06610   0.00000  Uiso   1.00
H376   H     0.38327   0.37135   0.26115   0.00000  Uiso   1.00
H377   H     0.37997   0.30029   0.25862   0.00000  Uiso   1.00
H378   H     0.43751   0.22443   0.40295   0.00000  Uiso   1.00
H379   H     0.31496   0.25325   0.49871   0.00000  Uiso   1.00
H380   H     0.26163   0.20587   0.31725   0.00000  Uiso   1.00
H381   H     0.33160   0.24649   0.01256   0.00000  Uiso   1.00
H382   H     0.36087   0.20267   0.13307   0.00000  Uiso   1.00
H383   H     0.49562   0.28972   0.32200   0.00000  Uiso   1.00
H384   H     0.49278   0.38165   0.45507   0.00000  Uiso   1.00
H385   H     0.38629   0.29358   0.76028   0.00000  Uiso   1.00
H386   H     0.25013   0.20978   0.81529   0.00000  Uiso   1.00
H387   H     0.42517   0.25023   0.87037   0.00000  Uiso   1.00
H388   H     0.49955   0.29491   0.82803   0.00000  Uiso   1.00
H389   H     0.26331   0.20827   0.56596   0.00000  Uiso   1.00
H390   H     0.43432   0.44796   0.03793   0.00000  Uiso   1.00
H391   H     0.32042   0.40877   0.13084   0.00000  Uiso   1.00
H392   H     0.43521   0.54637   0.21644   0.00000  Uiso   1.00
H393   H     0.36069   0.47000   0.38474   0.00000  Uiso   1.00
H394   H     0.36622   0.53441   0.38068   0.00000  Uiso   1.00
H395   H     0.26604   0.45754   0.45220   0.00000  Uiso   1.00
H396   H     0.25643   0.54861   0.07572   0.00000  Uiso   1.00
H397   H     0.26235   0.54282   0.57518   0.00000  Uiso   1.00
H398   H     0.31970   0.40457   0.62868   0.00000  Uiso   1.00
H399   H     0.41363   0.41030   0.90610   0.00000  Uiso   1.00
H400   H     0.35828   0.46643   0.75593   0.00000  Uiso   1.00
H401   H     0.35857   0.53392   0.88566   0.00000  Uiso   1.00
H402   H     0.36488   0.52902   0.63358   0.00000  Uiso   1.00
H403   H     0.25722   0.45303   0.70189   0.00000  Uiso   1.00
H404   H     0.26184   0.45949   0.95240   0.00000  Uiso   1.00
H405   H     0.43058   0.43525   0.52000   0.00000  Uiso   1.00
H406   H     0.39585   0.62710   0.00971   0.00000  Uiso   1.00
H407   H     0.38410   0.70556   0.26395   0.00000  Uiso   1.00
H408   H     0.25884   0.79530   0.18817   0.00000  Uiso   1.00
H409   H     0.25592   0.79268   0.43317   0.00000  Uiso   1.00
H410   H     0.49934   0.62292   0.08151   0.00000  Uiso   1.00
H411   H     0.49673   0.62322   0.32310   0.00000  Uiso   1.00
H412   H     0.31496   0.60327   0.16769   0.00000  Uiso   1.00
H413   H     0.39279   0.71546   0.49316   0.00000  Uiso   1.00
H414   H     0.36070   0.79825   0.63078   0.00000  Uiso   1.00
H415   H     0.44144   0.77883   0.78502   0.00000  Uiso   1.00
H416   H     0.31622   0.73380   0.85701   0.00000  Uiso   1.00
H417   H     0.25304   0.78866   0.69251   0.00000  Uiso   1.00
H418   H     0.38830   0.62353   0.76275   0.00000  Uiso   1.00
H419   H     0.49616   0.71123   0.69147   0.00000  Uiso   1.00
H420   H     0.25302   0.78865   0.93823   0.00000  Uiso   1.00
H421   H     0.38317   0.63410   0.50160   0.00000  Uiso   1.00
H422   H     0.39698   0.72191   0.99329   0.00000  Uiso   1.00
H423   H     0.36033   0.80087   0.13416   0.00000  Uiso   1.00
H424   H     0.36918   0.81108   0.37337   0.00000  Uiso   1.00
H425   H     0.36035   0.87703   0.11974   0.00000  Uiso   1.00
H426   H     0.39523   0.95598   0.25685   0.00000  Uiso   1.00
H427   H     0.35841   0.87352   0.37569   0.00000  Uiso   1.00
H428   H     0.37927   0.96591   0.98645   0.00000  Uiso   1.00
H429   H     0.37826   0.84781   0.89862   0.00000  Uiso   1.00
H430   H     0.36038   0.87144   0.61605   0.00000  Uiso   1.00
H431   H     0.39803   0.94965   0.75999   0.00000  Uiso   1.00
H432   H     0.39028   0.94984   0.51502   0.00000  Uiso   1.00
H433   H     0.25458   0.87329   0.81871   0.00000  Uiso   1.00
H434   H     0.25151   0.88221   0.56603   0.00000  Uiso   1.00
H435   H     0.49844   0.94718   0.81895   0.00000  Uiso   1.00
H436   H     0.61301   0.03249   0.13425   0.00000  Uiso   1.00
H437   H     0.67833   0.06806   0.37956   0.00000  Uiso   1.00
H438   H     0.56504   0.09537   0.27520   0.00000  Uiso   1.00
H439   H     0.74569   0.12076   0.43825   0.00000  Uiso   1.00
H440   H     0.50321   0.04876   0.19654   0.00000  Uiso   1.00
H441   H     0.64240   0.11967   0.49125   0.00000  Uiso   1.00
H442   H     0.63944   0.12082   0.00112   0.00000  Uiso   1.00
H443   H     0.51822   0.03879   0.69541   0.00000  Uiso   1.00
H444   H     0.61583   0.03029   0.62397   0.00000  Uiso   1.00
H445   H     0.67600   0.07427   0.88582   0.00000  Uiso   1.00
H446   H     0.57226   0.08193   0.75952   0.00000  Uiso   1.00
H447   H     0.65263   0.22616   0.27214   0.00000  Uiso   1.00
H448   H     0.63904   0.21387   0.01698   0.00000  Uiso   1.00
H449   H     0.60345   0.37591   0.39853   0.00000  Uiso   1.00
H450   H     0.60992   0.30180   0.12926   0.00000  Uiso   1.00
H451   H     0.50211   0.29177   0.07216   0.00000  Uiso   1.00
H452   H     0.61160   0.30172   0.37958   0.00000  Uiso   1.00
H453   H     0.61318   0.36605   0.13609   0.00000  Uiso   1.00
H454   H     0.50821   0.37982   0.19737   0.00000  Uiso   1.00
H455   H     0.62205   0.30891   0.88778   0.00000  Uiso   1.00
H456   H     0.64436   0.21354   0.77657   0.00000  Uiso   1.00
H457   H     0.60408   0.29420   0.63612   0.00000  Uiso   1.00
H458   H     0.50203   0.38359   0.94980   0.00000  Uiso   1.00
H459   H     0.61661   0.36173   0.63798   0.00000  Uiso   1.00
H460   H     0.50434   0.38072   0.69736   0.00000  Uiso   1.00
H461   H     0.61160   0.37425   0.89990   0.00000  Uiso   1.00
H462   H     0.64206   0.21817   0.51812   0.00000  Uiso   1.00
H463   H     0.50394   0.28561   0.57230   0.00000  Uiso   1.00
H464   H     0.74900   0.21488   0.57239   0.00000  Uiso   1.00
H465   H     0.63563   0.46527   0.01278   0.00000  Uiso   1.00
H466   H     0.64567   0.55158   0.37589   0.00000  Uiso   1.00
H467   H     0.63147   0.46295   0.25837   0.00000  Uiso   1.00
H468   H     0.63699   0.53749   0.13240   0.00000  Uiso   1.00
H469   H     0.74570   0.54713   0.07426   0.00000  Uiso   1.00
H470   H     0.74702   0.54342   0.32518   0.00000  Uiso   1.00
H471   H     0.64930   0.44960   0.75379   0.00000  Uiso   1.00
H472   H     0.64415   0.55104   0.62166   0.00000  Uiso   1.00
H473   H     0.63328   0.45702   0.50971   0.00000  Uiso   1.00
H474   H     0.63290   0.53565   0.89337   0.00000  Uiso   1.00
H475   H     0.74729   0.45615   0.95218   0.00000  Uiso   1.00
H476   H     0.60853   0.63557   0.25160   0.00000  Uiso   1.00
H477   H     0.61956   0.69052   0.37546   0.00000  Uiso   1.00
H478   H     0.67343   0.74634   0.14556   0.00000  Uiso   1.00
H479   H     0.51033   0.70998   0.44280   0.00000  Uiso   1.00
H480   H     0.65217   0.77436   0.49456   0.00000  Uiso   1.00
H481   H     0.64128   0.78958   0.26043   0.00000  Uiso   1.00
H482   H     0.57953   0.75256   0.00676   0.00000  Uiso   1.00
H483   H     0.50434   0.71155   0.20164   0.00000  Uiso   1.00
H484   H     0.65111   0.77858   0.75131   0.00000  Uiso   1.00
H485   H     0.62007   0.64255   0.99851   0.00000  Uiso   1.00
H486   H     0.61459   0.69603   0.63434   0.00000  Uiso   1.00
H487   H     0.61119   0.63081   0.76392   0.00000  Uiso   1.00
H488   H     0.60937   0.70000   0.88870   0.00000  Uiso   1.00
H489   H     0.50123   0.61851   0.82313   0.00000  Uiso   1.00
H490   H     0.51041   0.70997   0.94964   0.00000  Uiso   1.00
H491   H     0.61437   0.63596   0.51159   0.00000  Uiso   1.00
H492   H     0.50722   0.62537   0.57124   0.00000  Uiso   1.00
H493   H     0.74944   0.78150   0.69220   0.00000  Uiso   1.00
H494   H     0.62512   0.97823   0.24448   0.00000  Uiso   1.00
H495   H     0.57037   0.90864   0.38570   0.00000  Uiso   1.00
H496   H     0.63169   0.86691   0.14506   0.00000  Uiso   1.00
H497   H     0.67756   0.92276   0.00998   0.00000  Uiso   1.00
H498   H     0.51009   0.95203   0.31864   0.00000  Uiso   1.00
H499   H     0.74829   0.87690   0.32244   0.00000  Uiso   1.00
H500   H     0.50292   0.95482   0.06701   0.00000  Uiso   1.00
H501   H     0.61659   0.96473   0.75531   0.00000  Uiso   1.00
H502   H     0.58373   0.91627   0.87150   0.00000  Uiso   1.00
H503   H     0.63690   0.86802   0.63988   0.00000  Uiso   1.00
H504   H     0.67089   0.91938   0.51900   0.00000  Uiso   1.00
H505   H     0.50015   0.95367   0.56992   0.00000  Uiso   1.00
H506   H     0.89684   0.04769   0.38319   0.00000  Uiso   1.00
H507   H     0.88978   0.04562   0.13553   0.00000  Uiso   1.00
H508   H     0.85563   0.13169   0.24615   0.00000  Uiso   1.00
H509   H     0.87163   0.18907   0.13394   0.00000  Uiso   1.00
H510   H     0.76016   0.12652   0.19611   0.00000  Uiso   1.00
H511   H     0.99806   0.04139   0.68119   0.00000  Uiso   1.00
H512   H     0.88441   0.03828   0.87926   0.00000  Uiso   1.00
H513   H     0.81765   0.07345   0.63002   0.00000  Uiso   1.00
H514   H     0.85984   0.13243   0.99590   0.00000  Uiso   1.00
H515   H     0.85949   0.13293   0.75523   0.00000  Uiso   1.00
H516   H     0.75515   0.12100   0.69431   0.00000  Uiso   1.00
H517   H     0.92249   0.09142   0.50571   0.00000  Uiso   1.00
H518   H     0.75957   0.12649   0.93817   0.00000  Uiso   1.00
H519   H     0.89751   0.27935   0.01524   0.00000  Uiso   1.00
H520   H     0.88261   0.37387   0.25419   0.00000  Uiso   1.00
H521   H     0.89462   0.28126   0.26272   0.00000  Uiso   1.00
H522   H     0.75396   0.21306   0.06824   0.00000  Uiso   1.00
H523   H     0.99910   0.28583   0.32318   0.00000  Uiso   1.00
H524   H     0.85809   0.20519   0.37140   0.00000  Uiso   1.00
H525   H     0.99329   0.37575   0.20060   0.00000  Uiso   1.00
H526   H     0.75309   0.21136   0.31967   0.00000  Uiso   1.00
H527   H     0.89231   0.37802   0.76226   0.00000  Uiso   1.00
H528   H     0.88382   0.29092   0.76671   0.00000  Uiso   1.00
H529   H     0.88693   0.28805   0.51098   0.00000  Uiso   1.00
H530   H     0.75302   0.21316   0.81451   0.00000  Uiso   1.00
H531   H     0.85302   0.21331   0.62176   0.00000  Uiso   1.00
H532   H     0.99971   0.38420   0.69480   0.00000  Uiso   1.00
H533   H     0.86105   0.20406   0.86800   0.00000  Uiso   1.00
H534   H     0.75236   0.45267   0.19747   0.00000  Uiso   1.00
H535   H     0.86383   0.47304   0.37508   0.00000  Uiso   1.00
H536   H     0.92624   0.57483   0.26038   0.00000  Uiso   1.00
H537   H     0.92814   0.42759   0.13050   0.00000  Uiso   1.00
H538   H     0.86316   0.53953   0.01174   0.00000  Uiso   1.00
H539   H     0.82598   0.58103   0.12589   0.00000  Uiso   1.00
H540   H     0.76159   0.45873   0.45246   0.00000  Uiso   1.00
H541   H     0.86309   0.53691   0.77262   0.00000  Uiso   1.00
H542   H     0.86906   0.47591   0.88260   0.00000  Uiso   1.00
H543   H     0.92216   0.42031   0.64201   0.00000  Uiso   1.00
H544   H     0.86576   0.52604   0.50317   0.00000  Uiso   1.00
H545   H     0.82568   0.41495   0.50460   0.00000  Uiso   1.00
H546   H     0.75997   0.54357   0.57373   0.00000  Uiso   1.00
H547   H     0.75832   0.45951   0.69727   0.00000  Uiso   1.00
H548   H     0.75395   0.54563   0.82177   0.00000  Uiso   1.00
H549   H     0.83135   0.42207   0.99567   0.00000  Uiso   1.00
H550   H     0.75516   0.78418   0.44496   0.00000  Uiso   1.00
H551   H     0.88246   0.62928   0.39019   0.00000  Uiso   1.00
H552   H     0.93083   0.77035   0.26616   0.00000  Uiso   1.00
H553   H     0.83396   0.76001   0.40265   0.00000  Uiso   1.00
H554   H     0.89466   0.70879   0.12923   0.00000  Uiso   1.00
H555   H     0.75656   0.79134   0.19515   0.00000  Uiso   1.00
H556   H     0.99066   0.62326   0.32450   0.00000  Uiso   1.00
H557   H     0.89564   0.61855   0.63534   0.00000  Uiso   1.00
H558   H     0.75100   0.78602   0.94810   0.00000  Uiso   1.00
H559   H     0.89615   0.70921   0.89511   0.00000  Uiso   1.00
H560   H     0.83349   0.74877   0.64610   0.00000  Uiso   1.00
H561   H     0.86428   0.79397   0.75675   0.00000  Uiso   1.00
H562   H     0.88157   0.63197   0.88275   0.00000  Uiso   1.00
H563   H     0.93182   0.76325   0.51176   0.00000  Uiso   1.00
H564   H     0.99903   0.61579   0.56741   0.00000  Uiso   1.00
H565   H     0.89365   0.95177   0.00813   0.00000  Uiso   1.00
H566   H     0.85723   0.87068   0.12068   0.00000  Uiso   1.00
H567   H     0.89933   0.94321   0.26793   0.00000  Uiso   1.00
H568   H     0.85546   0.86785   0.38320   0.00000  Uiso   1.00
H569   H     0.75521   0.88078   0.06739   0.00000  Uiso   1.00
H570   H     0.86540   0.80800   0.01337   0.00000  Uiso   1.00
H571   H     0.88499   0.95885   0.50729   0.00000  Uiso   1.00
H572   H     0.75126   0.87722   0.57364   0.00000  Uiso   1.00
H573   H     0.86833   0.85908   0.62909   0.00000  Uiso   1.00
H574   H     0.90146   0.93844   0.77206   0.00000  Uiso   1.00
H575   H     0.86364   0.85888   0.88083   0.00000  Uiso   1.00
H576   H     0.75240   0.87124   0.81465   0.00000  Uiso   1.00
C577   C     0.09548   0.08304   0.10221   0.00000  Uiso   1.00
C578   C     0.12925   0.10333   0.10529   0.00000  Uiso   1.00
C579   C     0.12080   0.05442   0.02817   0.00000  Uiso   1.00
C580   C     0.15389   0.07506   0.03088   0.00000  Uiso   1.00
C581   C     0.05421   0.03762   0.06226   0.00000  Uiso   1.00
C582   C     0.09143   0.05824   0.06485   0.00000  Uiso   1.00
C583   C     0.19239   0.12413   0.06668   0.00000  Uiso   1.00
C584   C     0.15877   0.09940   0.06823   0.00000  Uiso   1.00
C585   C     0.11883   0.04587   0.28206   0.00000  Uiso   1.00
C586   C     0.15524   0.06490   0.27883   0.00000  Uiso   1.00
C587   C     0.09750   0.08646   0.34406   0.00000  Uiso   1.00
C588   C     0.13407   0.10428   0.34597   0.00000  Uiso   1.00
C589   C     0.05388   0.03789   0.31473   0.00000  Uiso   1.00
C590   C     0.09052   0.05759   0.31582   0.00000  Uiso   1.00
C591   C     0.19923   0.11595   0.31268   0.00000  Uiso   1.00
C592   C     0.16400   0.09406   0.31340   0.00000  Uiso   1.00
C593   C     0.09589   0.07933   0.61362   0.00000  Uiso   1.00
C594   C     0.12902   0.09956   0.61589   0.00000  Uiso   1.00
C595   C     0.11395   0.06082   0.52993   0.00000  Uiso   1.00
C596   C     0.14894   0.08172   0.53366   0.00000  Uiso   1.00
C597   C     0.05187   0.03699   0.56865   0.00000  Uiso   1.00
C598   C     0.08712   0.06027   0.56996   0.00000  Uiso   1.00
C599   C     0.19214   0.12814   0.57605   0.00000  Uiso   1.00
C600   C     0.15656   0.10358   0.57699   0.00000  Uiso   1.00
C601   C     0.12404   0.04775   0.79127   0.00000  Uiso   1.00
C602   C     0.15990   0.06412   0.79954   0.00000  Uiso   1.00
C603   C     0.09231   0.09163   0.84370   0.00000  Uiso   1.00
C604   C     0.12782   0.11101   0.84592   0.00000  Uiso   1.00
C605   C     0.05474   0.03913   0.81295   0.00000  Uiso   1.00
C606   C     0.08953   0.06103   0.81319   0.00000  Uiso   1.00
C607   C     0.19579   0.11867   0.82109   0.00000  Uiso   1.00
C608   C     0.16114   0.09862   0.82027   0.00000  Uiso   1.00
C609   C     0.13312   0.22452   0.47241   0.00000  Uiso   1.00
C610   C     0.19716   0.21022   0.43896   0.00000  Uiso   1.00
C611   C     0.08927   0.39243   0.32407   0.00000  Uiso   1.00
C612   C     0.15695   0.26680   0.15829   0.00000  Uiso   1.00
C613   C     0.12050   0.28346   0.15913   0.00000  Uiso   1.00
C614   C     0.09320   0.39274   0.07199   0.00000  Uiso   1.00
C615   C     0.16247   0.23731   0.19095   0.00000  Uiso   1.00
C616   C     0.05389   0.29821   0.19543   0.00000  Uiso   1.00
C617   C     0.09348   0.27772   0.19504   0.00000  Uiso   1.00
C618   C     0.13624   0.23040   0.22836   0.00000  Uiso   1.00
C619   C     0.10203   0.25148   0.23355   0.00000  Uiso   1.00
C620   C     0.05600   0.37132   0.06984   0.00000  Uiso   1.00
C621   C     0.15407   0.26096   0.40231   0.00000  Uiso   1.00
C622   C     0.11789   0.27645   0.40273   0.00000  Uiso   1.00
C623   C     0.19772   0.21511   0.18858   0.00000  Uiso   1.00
C624   C     0.16271   0.23383   0.43974   0.00000  Uiso   1.00
C625   C     0.05364   0.29062   0.44342   0.00000  Uiso   1.00
C626   C     0.08950   0.26866   0.43850   0.00000  Uiso   1.00
C627   C     0.09714   0.24292   0.47575   0.00000  Uiso   1.00
C628   C     0.05200   0.37293   0.32133   0.00000  Uiso   1.00
C629   C     0.12238   0.38588   0.03492   0.00000  Uiso   1.00
C630   C     0.11979   0.37881   0.29762   0.00000  Uiso   1.00
C631   C     0.15595   0.39561   0.29795   0.00000  Uiso   1.00
C632   C     0.10343   0.24888   0.98170   0.00000  Uiso   1.00
C633   C     0.12527   0.38191   0.79639   0.00000  Uiso   1.00
C634   C     0.11566   0.38773   0.52965   0.00000  Uiso   1.00
C635   C     0.15655   0.26672   0.66133   0.00000  Uiso   1.00
C636   C     0.11995   0.28360   0.65822   0.00000  Uiso   1.00
C637   C     0.16467   0.24172   0.69917   0.00000  Uiso   1.00
C638   C     0.05490   0.29683   0.69123   0.00000  Uiso   1.00
C639   C     0.09126   0.27543   0.69403   0.00000  Uiso   1.00
C640   C     0.13425   0.23231   0.73105   0.00000  Uiso   1.00
C641   C     0.09985   0.25203   0.73281   0.00000  Uiso   1.00
C642   C     0.05354   0.37032   0.57033   0.00000  Uiso   1.00
C643   C     0.19779   0.21612   0.69449   0.00000  Uiso   1.00
C644   C     0.15593   0.25804   0.90261   0.00000  Uiso   1.00
C645   C     0.12103   0.27896   0.90485   0.00000  Uiso   1.00
C646   C     0.16422   0.23279   0.94106   0.00000  Uiso   1.00
C647   C     0.05755   0.29520   0.94483   0.00000  Uiso   1.00
C648   C     0.09373   0.27308   0.94361   0.00000  Uiso   1.00
C649   C     0.13661   0.22882   0.97861   0.00000  Uiso   1.00
C650   C     0.19945   0.21028   0.94060   0.00000  Uiso   1.00
C651   C     0.05711   0.37413   0.82480   0.00000  Uiso   1.00
C652   C     0.09145   0.38977   0.57143   0.00000  Uiso   1.00
C653   C     0.09416   0.39210   0.82848   0.00000  Uiso   1.00
C654   C     0.16435   0.42416   0.33079   0.00000  Uiso   1.00
C655   C     0.19847   0.44726   0.32603   0.00000  Uiso   1.00
C656   C     0.15017   0.59664   0.16842   0.00000  Uiso   1.00
C657   C     0.19399   0.54832   0.20354   0.00000  Uiso   1.00
C658   C     0.15868   0.57094   0.20512   0.00000  Uiso   1.00
C659   C     0.15751   0.40387   0.03682   0.00000  Uiso   1.00
C660   C     0.12848   0.56364   0.24037   0.00000  Uiso   1.00
C661   C     0.13580   0.43475   0.11255   0.00000  Uiso   1.00
C662   C     0.09652   0.42045   0.36063   0.00000  Uiso   1.00
C663   C     0.19826   0.45452   0.07654   0.00000  Uiso   1.00
C664   C     0.16372   0.43003   0.07636   0.00000  Uiso   1.00
C665   C     0.13313   0.43592   0.36195   0.00000  Uiso   1.00
C666   C     0.09681   0.57715   0.48707   0.00000  Uiso   1.00
C667   C     0.19689   0.54467   0.45300   0.00000  Uiso   1.00
C668   C     0.16183   0.56753   0.45571   0.00000  Uiso   1.00
C669   C     0.09221   0.58218   0.23705   0.00000  Uiso   1.00
C670   C     0.13135   0.55867   0.48889   0.00000  Uiso   1.00
C671   C     0.10125   0.41630   0.11180   0.00000  Uiso   1.00
C672   C     0.15719   0.59502   0.42022   0.00000  Uiso   1.00
C673   C     0.15453   0.40109   0.52896   0.00000  Uiso   1.00
C674   C     0.13836   0.58171   0.90430   0.00000  Uiso   1.00
C675   C     0.10459   0.41346   0.60949   0.00000  Uiso   1.00
C676   C     0.19733   0.54081   0.69994   0.00000  Uiso   1.00
C677   C     0.16392   0.56494   0.70103   0.00000  Uiso   1.00
C678   C     0.13563   0.55837   0.73697   0.00000  Uiso   1.00
C679   C     0.14048   0.43031   0.60701   0.00000  Uiso   1.00
C680   C     0.10037   0.57872   0.74008   0.00000  Uiso   1.00
C681   C     0.20018   0.44744   0.57051   0.00000  Uiso   1.00
C682   C     0.16670   0.42400   0.56942   0.00000  Uiso   1.00
C683   C     0.10019   0.41915   0.86404   0.00000  Uiso   1.00
C684   C     0.19144   0.54376   0.94888   0.00000  Uiso   1.00
C685   C     0.15399   0.56384   0.94834   0.00000  Uiso   1.00
C686   C     0.13589   0.43800   0.86279   0.00000  Uiso   1.00
C687   C     0.16713   0.42862   0.82847   0.00000  Uiso   1.00
C688   C     0.20172   0.45022   0.82777   0.00000  Uiso   1.00
C689   C     0.15511   0.58900   0.66336   0.00000  Uiso   1.00
C690   C     0.13123   0.56328   0.99194   0.00000  Uiso   1.00
C691   C     0.09762   0.58340   0.99612   0.00000  Uiso   1.00
C692   C     0.16009   0.40088   0.79586   0.00000  Uiso   1.00
C693   C     0.13064   0.77739   0.28731   0.00000  Uiso   1.00
C694   C     0.12198   0.61404   0.42172   0.00000  Uiso   1.00
C695   C     0.19699   0.79091   0.07317   0.00000  Uiso   1.00
C696   C     0.05047   0.62965   0.20197   0.00000  Uiso   1.00
C697   C     0.09725   0.75339   0.10433   0.00000  Uiso   1.00
C698   C     0.11354   0.61479   0.16353   0.00000  Uiso   1.00
C699   C     0.12861   0.71700   0.04140   0.00000  Uiso   1.00
C700   C     0.16210   0.73668   0.04511   0.00000  Uiso   1.00
C701   C     0.06059   0.70491   0.07078   0.00000  Uiso   1.00
C702   C     0.09674   0.72492   0.07188   0.00000  Uiso   1.00
C703   C     0.16310   0.76670   0.07693   0.00000  Uiso   1.00
C704   C     0.05552   0.62586   0.44983   0.00000  Uiso   1.00
C705   C     0.12368   0.71718   0.34440   0.00000  Uiso   1.00
C706   C     0.15838   0.73556   0.34585   0.00000  Uiso   1.00
C707   C     0.09324   0.76062   0.29209   0.00000  Uiso   1.00
C708   C     0.05550   0.70557   0.32068   0.00000  Uiso   1.00
C709   C     0.09114   0.72801   0.31754   0.00000  Uiso   1.00
C710   C     0.16277   0.76570   0.31486   0.00000  Uiso   1.00
C711   C     0.13014   0.77532   0.10763   0.00000  Uiso   1.00
C712   C     0.20079   0.78454   0.31242   0.00000  Uiso   1.00
C713   C     0.08554   0.60928   0.20161   0.00000  Uiso   1.00
C714   C     0.08987   0.60431   0.45253   0.00000  Uiso   1.00
C715   C     0.11938   0.60775   0.66388   0.00000  Uiso   1.00
C716   C     0.04778   0.62425   0.95231   0.00000  Uiso   1.00
C717   C     0.09234   0.60295   0.70159   0.00000  Uiso   1.00
C718   C     0.20184   0.77984   0.81031   0.00000  Uiso   1.00
C719   C     0.15900   0.73172   0.84749   0.00000  Uiso   1.00
C720   C     0.05536   0.62343   0.69995   0.00000  Uiso   1.00
C721   C     0.12653   0.71294   0.59318   0.00000  Uiso   1.00
C722   C     0.16141   0.73124   0.58986   0.00000  Uiso   1.00
C723   C     0.09454   0.75797   0.54613   0.00000  Uiso   1.00
C724   C     0.12895   0.77937   0.54650   0.00000  Uiso   1.00
C725   C     0.05805   0.70321   0.57306   0.00000  Uiso   1.00
C726   C     0.09296   0.72486   0.57177   0.00000  Uiso   1.00
C727   C     0.16276   0.76471   0.56645   0.00000  Uiso   1.00
C728   C     0.12385   0.71506   0.84857   0.00000  Uiso   1.00
C729   C     0.10018   0.75119   0.77971   0.00000  Uiso   1.00
C730   C     0.13557   0.76690   0.77584   0.00000  Uiso   1.00
C731   C     0.05700   0.70250   0.81854   0.00000  Uiso   1.00
C732   C     0.09419   0.72364   0.81526   0.00000  Uiso   1.00
C733   C     0.16635   0.75800   0.80906   0.00000  Uiso   1.00
C734   C     0.08424   0.60266   0.95282   0.00000  Uiso   1.00
C735   C     0.19670   0.78733   0.56480   0.00000  Uiso   1.00
C736   C     0.10500   0.60123   0.90833   0.00000  Uiso   1.00
C737   C     0.14929   0.92787   0.14933   0.00000  Uiso   1.00
C738   C     0.11341   0.94477   0.14788   0.00000  Uiso   1.00
C739   C     0.19791   0.88537   0.18875   0.00000  Uiso   1.00
C740   C     0.16043   0.90570   0.18971   0.00000  Uiso   1.00
C741   C     0.05172   0.96168   0.18783   0.00000  Uiso   1.00
C742   C     0.08778   0.94015   0.18767   0.00000  Uiso   1.00
C743   C     0.13310   0.89898   0.22789   0.00000  Uiso   1.00
C744   C     0.09589   0.91344   0.22379   0.00000  Uiso   1.00
C745   C     0.15022   0.92813   0.40644   0.00000  Uiso   1.00
C746   C     0.11384   0.94502   0.40513   0.00000  Uiso   1.00
C747   C     0.19363   0.88169   0.44288   0.00000  Uiso   1.00
C748   C     0.15985   0.90283   0.44533   0.00000  Uiso   1.00
C749   C     0.05037   0.96223   0.43934   0.00000  Uiso   1.00
C750   C     0.08645   0.93920   0.44150   0.00000  Uiso   1.00
C751   C     0.09561   0.91348   0.47945   0.00000  Uiso   1.00
C752   C     0.13204   0.89555   0.48306   0.00000  Uiso   1.00
C753   C     0.13541   0.90374   0.73611   0.00000  Uiso   1.00
C754   C     0.10110   0.92482   0.73039   0.00000  Uiso   1.00
C755   C     0.19776   0.88020   0.69800   0.00000  Uiso   1.00
C756   C     0.16362   0.90553   0.69893   0.00000  Uiso   1.00
C757   C     0.05789   0.96563   0.68595   0.00000  Uiso   1.00
C758   C     0.09516   0.94643   0.68600   0.00000  Uiso   1.00
C759   C     0.15794   0.92559   0.65625   0.00000  Uiso   1.00
C760   C     0.12438   0.94559   0.64859   0.00000  Uiso   1.00
C761   C     0.15448   0.93018   0.90288   0.00000  Uiso   1.00
C762   C     0.11619   0.94530   0.89705   0.00000  Uiso   1.00
C763   C     0.19760   0.87964   0.93669   0.00000  Uiso   1.00
C764   C     0.16054   0.90036   0.93499   0.00000  Uiso   1.00
C765   C     0.05247   0.95874   0.93359   0.00000  Uiso   1.00
C766   C     0.08698   0.93556   0.93089   0.00000  Uiso   1.00
C767   C     0.12905   0.88873   0.96481   0.00000  Uiso   1.00
C768   C     0.09316   0.90671   0.96590   0.00000  Uiso   1.00
C769   C     0.34899   0.07889   0.10543   0.00000  Uiso   1.00
C770   C     0.38305   0.06115   0.10542   0.00000  Uiso   1.00
C771   C     0.30182   0.12473   0.06789   0.00000  Uiso   1.00
C772   C     0.33871   0.10568   0.06907   0.00000  Uiso   1.00
C773   C     0.44784   0.04820   0.06695   0.00000  Uiso   1.00
C774   C     0.41330   0.07094   0.07036   0.00000  Uiso   1.00
C775   C     0.36837   0.11208   0.03264   0.00000  Uiso   1.00
C776   C     0.40478   0.09467   0.03224   0.00000  Uiso   1.00
C777   C     0.37117   0.10655   0.27738   0.00000  Uiso   1.00
C778   C     0.40663   0.08999   0.29057   0.00000  Uiso   1.00
C779   C     0.30245   0.12222   0.31012   0.00000  Uiso   1.00
C780   C     0.33671   0.09854   0.30796   0.00000  Uiso   1.00
C781   C     0.44074   0.03573   0.32064   0.00000  Uiso   1.00
C782   C     0.40641   0.05880   0.32193   0.00000  Uiso   1.00
C783   C     0.34026   0.07096   0.34264   0.00000  Uiso   1.00
C784   C     0.37279   0.05152   0.34884   0.00000  Uiso   1.00
C785   C     0.30737   0.19540   0.44219   0.00000  Uiso   1.00
C786   C     0.35015   0.08219   0.61375   0.00000  Uiso   1.00
C787   C     0.38708   0.06706   0.61668   0.00000  Uiso   1.00
C788   C     0.30377   0.12709   0.57397   0.00000  Uiso   1.00
C789   C     0.34047   0.10724   0.57634   0.00000  Uiso   1.00
C790   C     0.44851   0.04781   0.57632   0.00000  Uiso   1.00
C791   C     0.41496   0.07111   0.57800   0.00000  Uiso   1.00
C792   C     0.36822   0.10999   0.53686   0.00000  Uiso   1.00
C793   C     0.40509   0.09481   0.53923   0.00000  Uiso   1.00
C794   C     0.34793   0.07780   0.84954   0.00000  Uiso   1.00
C795   C     0.38289   0.05773   0.84974   0.00000  Uiso   1.00
C796   C     0.30678   0.12522   0.81418   0.00000  Uiso   1.00
C797   C     0.34231   0.10337   0.81284   0.00000  Uiso   1.00
C798   C     0.44800   0.04196   0.81476   0.00000  Uiso   1.00
C799   C     0.41204   0.06461   0.81261   0.00000  Uiso   1.00
C800   C     0.37021   0.11045   0.77552   0.00000  Uiso   1.00
C801   C     0.40605   0.09242   0.77557   0.00000  Uiso   1.00
C802   C     0.37889   0.20891   0.42059   0.00000  Uiso   1.00
C803   C     0.37996   0.39353   0.28747   0.00000  Uiso   1.00
C804   C     0.41155   0.23062   0.42328   0.00000  Uiso   1.00
C805   C     0.30209   0.20924   0.19328   0.00000  Uiso   1.00
C806   C     0.37926   0.27694   0.23479   0.00000  Uiso   1.00
C807   C     0.34229   0.25854   0.23168   0.00000  Uiso   1.00
C808   C     0.40542   0.24046   0.16654   0.00000  Uiso   1.00
C809   C     0.36789   0.22358   0.16118   0.00000  Uiso   1.00
C810   C     0.44283   0.29269   0.20183   0.00000  Uiso   1.00
C811   C     0.41106   0.26816   0.20329   0.00000  Uiso   1.00
C812   C     0.33825   0.23110   0.19541   0.00000  Uiso   1.00
C813   C     0.44384   0.38321   0.08072   0.00000  Uiso   1.00
C814   C     0.37493   0.26926   0.47999   0.00000  Uiso   1.00
C815   C     0.44265   0.28688   0.45174   0.00000  Uiso   1.00
C816   C     0.41036   0.26099   0.45339   0.00000  Uiso   1.00
C817   C     0.34200   0.24665   0.47639   0.00000  Uiso   1.00
C818   C     0.34380   0.21735   0.44453   0.00000  Uiso   1.00
C819   C     0.44587   0.38377   0.32347   0.00000  Uiso   1.00
C820   C     0.37694   0.39587   0.11343   0.00000  Uiso   1.00
C821   C     0.37300   0.21630   0.66677   0.00000  Uiso   1.00
C822   C     0.38013   0.39186   0.61354   0.00000  Uiso   1.00
C823   C     0.38617   0.26683   0.98691   0.00000  Uiso   1.00
C824   C     0.37526   0.22425   0.90049   0.00000  Uiso   1.00
C825   C     0.38228   0.27283   0.73524   0.00000  Uiso   1.00
C826   C     0.34738   0.25294   0.73493   0.00000  Uiso   1.00
C827   C     0.40963   0.23453   0.67102   0.00000  Uiso   1.00
C828   C     0.44749   0.28921   0.70446   0.00000  Uiso   1.00
C829   C     0.41304   0.26565   0.70302   0.00000  Uiso   1.00
C830   C     0.34171   0.22684   0.69845   0.00000  Uiso   1.00
C831   C     0.44685   0.37895   0.57917   0.00000  Uiso   1.00
C832   C     0.40535   0.24957   0.90174   0.00000  Uiso   1.00
C833   C     0.35297   0.24505   0.98232   0.00000  Uiso   1.00
C834   C     0.44282   0.29461   0.94732   0.00000  Uiso   1.00
C835   C     0.40979   0.27044   0.94580   0.00000  Uiso   1.00
C836   C     0.34773   0.22292   0.94050   0.00000  Uiso   1.00
C837   C     0.45534   0.39355   0.82308   0.00000  Uiso   1.00
C838   C     0.30549   0.20690   0.69630   0.00000  Uiso   1.00
C839   C     0.31269   0.20091   0.93866   0.00000  Uiso   1.00
C840   C     0.36727   0.45118   0.35366   0.00000  Uiso   1.00
C841   C     0.40419   0.57253   0.41131   0.00000  Uiso   1.00
C842   C     0.34331   0.59226   0.47620   0.00000  Uiso   1.00
C843   C     0.40426   0.43463   0.35229   0.00000  Uiso   1.00
C844   C     0.34510   0.41241   0.28629   0.00000  Uiso   1.00
C845   C     0.34502   0.41681   0.11071   0.00000  Uiso   1.00
C846   C     0.37445   0.54029   0.21658   0.00000  Uiso   1.00
C847   C     0.33698   0.56459   0.44032   0.00000  Uiso   1.00
C848   C     0.40936   0.43789   0.05638   0.00000  Uiso   1.00
C849   C     0.36754   0.55679   0.40595   0.00000  Uiso   1.00
C850   C     0.30776   0.46980   0.08219   0.00000  Uiso   1.00
C851   C     0.34392   0.44956   0.08478   0.00000  Uiso   1.00
C852   C     0.30236   0.54177   0.44332   0.00000  Uiso   1.00
C853   C     0.37626   0.45953   0.05862   0.00000  Uiso   1.00
C854   C     0.41093   0.40582   0.08390   0.00000  Uiso   1.00
C855   C     0.30151   0.53928   0.20486   0.00000  Uiso   1.00
C856   C     0.33860   0.55696   0.20511   0.00000  Uiso   1.00
C857   C     0.30116   0.46011   0.32141   0.00000  Uiso   1.00
C858   C     0.33772   0.43998   0.32024   0.00000  Uiso   1.00
C859   C     0.40862   0.56096   0.21205   0.00000  Uiso   1.00
C860   C     0.40905   0.59838   0.19968   0.00000  Uiso   1.00
C861   C     0.34000   0.59263   0.18646   0.00000  Uiso   1.00
C862   C     0.40988   0.40521   0.31945   0.00000  Uiso   1.00
C863   C     0.30222   0.54743   0.94591   0.00000  Uiso   1.00
C864   C     0.42221   0.41631   0.82588   0.00000  Uiso   1.00
C865   C     0.40376   0.57102   0.90799   0.00000  Uiso   1.00
C866   C     0.41173   0.40128   0.58161   0.00000  Uiso   1.00
C867   C     0.36961   0.44929   0.78659   0.00000  Uiso   1.00
C868   C     0.34619   0.41129   0.60949   0.00000  Uiso   1.00
C869   C     0.37575   0.44884   0.54222   0.00000  Uiso   1.00
C870   C     0.40818   0.42942   0.54608   0.00000  Uiso   1.00
C871   C     0.30727   0.46050   0.57516   0.00000  Uiso   1.00
C872   C     0.34445   0.44063   0.57669   0.00000  Uiso   1.00
C873   C     0.40735   0.43467   0.78511   0.00000  Uiso   1.00
C874   C     0.37194   0.54907   0.66216   0.00000  Uiso   1.00
C875   C     0.34881   0.59249   0.98019   0.00000  Uiso   1.00
C876   C     0.30630   0.53662   0.69847   0.00000  Uiso   1.00
C877   C     0.34276   0.55780   0.69917   0.00000  Uiso   1.00
C878   C     0.36698   0.55579   0.90988   0.00000  Uiso   1.00
C879   C     0.34000   0.56527   0.94556   0.00000  Uiso   1.00
C880   C     0.30883   0.46446   0.82968   0.00000  Uiso   1.00
C881   C     0.34680   0.44607   0.83138   0.00000  Uiso   1.00
C882   C     0.40732   0.56994   0.66007   0.00000  Uiso   1.00
C883   C     0.34994   0.58534   0.73405   0.00000  Uiso   1.00
C884   C     0.41190   0.59856   0.69366   0.00000  Uiso   1.00
C885   C     0.36364   0.43164   0.87508   0.00000  Uiso   1.00
C886   C     0.40137   0.41968   0.87244   0.00000  Uiso   1.00
C887   C     0.41377   0.59663   0.94589   0.00000  Uiso   1.00
C888   C     0.37428   0.61230   0.18538   0.00000  Uiso   1.00
C889   C     0.37888   0.61192   0.47580   0.00000  Uiso   1.00
C890   C     0.44508   0.61791   0.19476   0.00000  Uiso   1.00
C891   C     0.35405   0.75556   0.02557   0.00000  Uiso   1.00
C892   C     0.38915   0.73694   0.02744   0.00000  Uiso   1.00
C893   C     0.37268   0.78877   0.34760   0.00000  Uiso   1.00
C894   C     0.34400   0.77950   0.06435   0.00000  Uiso   1.00
C895   C     0.45039   0.71737   0.06884   0.00000  Uiso   1.00
C896   C     0.41333   0.73974   0.06891   0.00000  Uiso   1.00
C897   C     0.36794   0.78240   0.10546   0.00000  Uiso   1.00
C898   C     0.40266   0.76362   0.10709   0.00000  Uiso   1.00
C899   C     0.44539   0.62186   0.44538   0.00000  Uiso   1.00
C900   C     0.34569   0.74642   0.28723   0.00000  Uiso   1.00
C901   C     0.38079   0.72814   0.28848   0.00000  Uiso   1.00
C902   C     0.34259   0.77892   0.31659   0.00000  Uiso   1.00
C903   C     0.44345   0.71305   0.32112   0.00000  Uiso   1.00
C904   C     0.40985   0.73751   0.32022   0.00000  Uiso   1.00
C905   C     0.40660   0.76689   0.35311   0.00000  Uiso   1.00
C906   C     0.40967   0.60126   0.44380   0.00000  Uiso   1.00
C907   C     0.30657   0.79948   0.31677   0.00000  Uiso   1.00
C908   C     0.38469   0.60364   0.73334   0.00000  Uiso   1.00
C909   C     0.38082   0.79022   0.79989   0.00000  Uiso   1.00
C910   C     0.44613   0.62084   0.69265   0.00000  Uiso   1.00
C911   C     0.35004   0.75625   0.52165   0.00000  Uiso   1.00
C912   C     0.38494   0.73422   0.52317   0.00000  Uiso   1.00
C913   C     0.34085   0.77690   0.56268   0.00000  Uiso   1.00
C914   C     0.44534   0.71543   0.56739   0.00000  Uiso   1.00
C915   C     0.41027   0.73758   0.56561   0.00000  Uiso   1.00
C916   C     0.40193   0.75922   0.60694   0.00000  Uiso   1.00
C917   C     0.44957   0.61971   0.94351   0.00000  Uiso   1.00
C918   C     0.36706   0.77867   0.60281   0.00000  Uiso   1.00
C919   C     0.41407   0.76839   0.80136   0.00000  Uiso   1.00
C920   C     0.34532   0.77791   0.82203   0.00000  Uiso   1.00
C921   C     0.44691   0.71242   0.82255   0.00000  Uiso   1.00
C922   C     0.41237   0.73464   0.82151   0.00000  Uiso   1.00
C923   C     0.34349   0.74389   0.84512   0.00000  Uiso   1.00
C924   C     0.37744   0.72195   0.84387   0.00000  Uiso   1.00
C925   C     0.38685   0.60643   0.98275   0.00000  Uiso   1.00
C926   C     0.30966   0.79935   0.82356   0.00000  Uiso   1.00
C927   C     0.30661   0.79993   0.56350   0.00000  Uiso   1.00
C928   C     0.34470   0.92188   0.47975   0.00000  Uiso   1.00
C929   C     0.38895   0.93671   0.23207   0.00000  Uiso   1.00
C930   C     0.35429   0.91881   0.23315   0.00000  Uiso   1.00
C931   C     0.40667   0.90813   0.15493   0.00000  Uiso   1.00
C932   C     0.36942   0.89335   0.15341   0.00000  Uiso   1.00
C933   C     0.44865   0.95313   0.19046   0.00000  Uiso   1.00
C934   C     0.41538   0.93069   0.19363   0.00000  Uiso   1.00
C935   C     0.30652   0.87879   0.19186   0.00000  Uiso   1.00
C936   C     0.34332   0.89720   0.19333   0.00000  Uiso   1.00
C937   C     0.40336   0.89839   0.41407   0.00000  Uiso   1.00
C938   C     0.36438   0.88835   0.40878   0.00000  Uiso   1.00
C939   C     0.44501   0.94608   0.44812   0.00000  Uiso   1.00
C940   C     0.41129   0.92425   0.45103   0.00000  Uiso   1.00
C941   C     0.29750   0.88061   0.43833   0.00000  Uiso   1.00
C942   C     0.33422   0.89938   0.44039   0.00000  Uiso   1.00
C943   C     0.38247   0.93143   0.48662   0.00000  Uiso   1.00
C944   C     0.30673   0.80053   0.06364   0.00000  Uiso   1.00
C945   C     0.37867   0.94000   0.96486   0.00000  Uiso   1.00
C946   C     0.38981   0.93253   0.72795   0.00000  Uiso   1.00
C947   C     0.35437   0.91599   0.72946   0.00000  Uiso   1.00
C948   C     0.40559   0.90349   0.64795   0.00000  Uiso   1.00
C949   C     0.36721   0.88859   0.64819   0.00000  Uiso   1.00
C950   C     0.45196   0.94612   0.69001   0.00000  Uiso   1.00
C951   C     0.41491   0.92586   0.68713   0.00000  Uiso   1.00
C952   C     0.30435   0.87376   0.69119   0.00000  Uiso   1.00
C953   C     0.34136   0.89381   0.68991   0.00000  Uiso   1.00
C954   C     0.40989   0.89431   0.91604   0.00000  Uiso   1.00
C955   C     0.37681   0.87332   0.91521   0.00000  Uiso   1.00
C956   C     0.44646   0.94973   0.94101   0.00000  Uiso   1.00
C957   C     0.41225   0.92601   0.94151   0.00000  Uiso   1.00
C958   C     0.30680   0.86504   0.93932   0.00000  Uiso   1.00
C959   C     0.34327   0.88628   0.94072   0.00000  Uiso   1.00
C960   C     0.34546   0.91792   0.97043   0.00000  Uiso   1.00
C961   C     0.61861   0.05218   0.10518   0.00000  Uiso   1.00
C962   C     0.65266   0.07129   0.10645   0.00000  Uiso   1.00
C963   C     0.60007   0.08310   0.02836   0.00000  Uiso   1.00
C964   C     0.63655   0.09892   0.02878   0.00000  Uiso   1.00
C965   C     0.55349   0.03790   0.06765   0.00000  Uiso   1.00
C966   C     0.59123   0.05703   0.06590   0.00000  Uiso   1.00
C967   C     0.69494   0.12066   0.07156   0.00000  Uiso   1.00
C968   C     0.66218   0.09522   0.06983   0.00000  Uiso   1.00
C969   C     0.59073   0.08805   0.29547   0.00000  Uiso   1.00
C970   C     0.62567   0.10727   0.28616   0.00000  Uiso   1.00
C971   C     0.61980   0.05504   0.36253   0.00000  Uiso   1.00
C972   C     0.65327   0.07627   0.35515   0.00000  Uiso   1.00
C973   C     0.55470   0.03717   0.32885   0.00000  Uiso   1.00
C974   C     0.58761   0.06187   0.33308   0.00000  Uiso   1.00
C975   C     0.69056   0.12466   0.31600   0.00000  Uiso   1.00
C976   C     0.65714   0.10059   0.31606   0.00000  Uiso   1.00
C977   C     0.61716   0.05298   0.59916   0.00000  Uiso   1.00
C978   C     0.65220   0.07214   0.60143   0.00000  Uiso   1.00
C979   C     0.59814   0.08586   0.52707   0.00000  Uiso   1.00
C980   C     0.63413   0.10340   0.52498   0.00000  Uiso   1.00
C981   C     0.55387   0.03739   0.56090   0.00000  Uiso   1.00
C982   C     0.58874   0.05983   0.56418   0.00000  Uiso   1.00
C983   C     0.69641   0.12112   0.56868   0.00000  Uiso   1.00
C984   C     0.66074   0.09959   0.56589   0.00000  Uiso   1.00
C985   C     0.59522   0.08040   0.78858   0.00000  Uiso   1.00
C986   C     0.62704   0.10363   0.78595   0.00000  Uiso   1.00
C987   C     0.62135   0.05359   0.86361   0.00000  Uiso   1.00
C988   C     0.65453   0.07602   0.85767   0.00000  Uiso   1.00
C989   C     0.55874   0.03332   0.82532   0.00000  Uiso   1.00
C990   C     0.59306   0.05551   0.82529   0.00000  Uiso   1.00
C991   C     0.69334   0.12373   0.81719   0.00000  Uiso   1.00
C992   C     0.65816   0.10004   0.81783   0.00000  Uiso   1.00
C993   C     0.63424   0.23509   0.48737   0.00000  Uiso   1.00
C994   C     0.69652   0.21815   0.44817   0.00000  Uiso   1.00
C995   C     0.61924   0.38695   0.10653   0.00000  Uiso   1.00
C996   C     0.65345   0.26504   0.15597   0.00000  Uiso   1.00
C997   C     0.61655   0.28275   0.15856   0.00000  Uiso   1.00
C998   C     0.66641   0.24414   0.19497   0.00000  Uiso   1.00
C999   C     0.55460   0.29655   0.20068   0.00000  Uiso   1.00
C1000  C     0.59204   0.27958   0.20020   0.00000  Uiso   1.00
C1001  C     0.64368   0.24196   0.23744   0.00000  Uiso   1.00
C1002  C     0.60674   0.25572   0.23889   0.00000  Uiso   1.00
C1003  C     0.55353   0.37651   0.07500   0.00000  Uiso   1.00
C1004  C     0.69949   0.21992   0.19107   0.00000  Uiso   1.00
C1005  C     0.65297   0.26642   0.41132   0.00000  Uiso   1.00
C1006  C     0.61740   0.28348   0.41058   0.00000  Uiso   1.00
C1007  C     0.66234   0.24201   0.45067   0.00000  Uiso   1.00
C1008  C     0.55092   0.29437   0.44743   0.00000  Uiso   1.00
C1009  C     0.58930   0.27471   0.44749   0.00000  Uiso   1.00
C1010  C     0.59813   0.25231   0.48606   0.00000  Uiso   1.00
C1011  C     0.61158   0.39405   0.36670   0.00000  Uiso   1.00
C1012  C     0.54945   0.37724   0.32709   0.00000  Uiso   1.00
C1013  C     0.59056   0.39575   0.07012   0.00000  Uiso   1.00
C1014  C     0.60000   0.25224   0.98610   0.00000  Uiso   1.00
C1015  C     0.69752   0.21605   0.94621   0.00000  Uiso   1.00
C1016  C     0.59120   0.39325   0.57712   0.00000  Uiso   1.00
C1017  C     0.63554   0.23477   0.98728   0.00000  Uiso   1.00
C1018  C     0.69321   0.21271   0.69207   0.00000  Uiso   1.00
C1019  C     0.64743   0.25849   0.66081   0.00000  Uiso   1.00
C1020  C     0.61162   0.27374   0.66418   0.00000  Uiso   1.00
C1021  C     0.65814   0.23338   0.69804   0.00000  Uiso   1.00
C1022  C     0.54992   0.29072   0.70657   0.00000  Uiso   1.00
C1023  C     0.58632   0.27054   0.70499   0.00000  Uiso   1.00
C1024  C     0.63560   0.23072   0.74435   0.00000  Uiso   1.00
C1025  C     0.60186   0.25019   0.74667   0.00000  Uiso   1.00
C1026  C     0.55831   0.36838   0.57551   0.00000  Uiso   1.00
C1027  C     0.65816   0.26721   0.91423   0.00000  Uiso   1.00
C1028  C     0.62453   0.28739   0.91578   0.00000  Uiso   1.00
C1029  C     0.66441   0.24225   0.95017   0.00000  Uiso   1.00
C1030  C     0.55667   0.30083   0.95023   0.00000  Uiso   1.00
C1031  C     0.59489   0.27943   0.95139   0.00000  Uiso   1.00
C1032  C     0.55779   0.37204   0.82517   0.00000  Uiso   1.00
C1033  C     0.62225   0.38451   0.60918   0.00000  Uiso   1.00
C1034  C     0.62238   0.38761   0.86538   0.00000  Uiso   1.00
C1035  C     0.59630   0.39036   0.82493   0.00000  Uiso   1.00
C1036  C     0.63908   0.57071   0.40599   0.00000  Uiso   1.00
C1037  C     0.59569   0.57529   0.15825   0.00000  Uiso   1.00
C1038  C     0.60098   0.58470   0.40635   0.00000  Uiso   1.00
C1039  C     0.65589   0.43281   0.32357   0.00000  Uiso   1.00
C1040  C     0.69507   0.54945   0.19246   0.00000  Uiso   1.00
C1041  C     0.65901   0.56823   0.19421   0.00000  Uiso   1.00
C1042  C     0.64841   0.40835   0.36282   0.00000  Uiso   1.00
C1043  C     0.63173   0.55754   0.16119   0.00000  Uiso   1.00
C1044  C     0.63339   0.44153   0.03713   0.00000  Uiso   1.00
C1045  C     0.70070   0.45240   0.07095   0.00000  Uiso   1.00
C1046  C     0.66415   0.43023   0.06963   0.00000  Uiso   1.00
C1047  C     0.58970   0.42679   0.29149   0.00000  Uiso   1.00
C1048  C     0.69788   0.54731   0.44821   0.00000  Uiso   1.00
C1049  C     0.66328   0.57135   0.44635   0.00000  Uiso   1.00
C1050  C     0.65413   0.59714   0.48376   0.00000  Uiso   1.00
C1051  C     0.62584   0.44283   0.28864   0.00000  Uiso   1.00
C1052  C     0.69360   0.45071   0.32142   0.00000  Uiso   1.00
C1053  C     0.59763   0.42315   0.03598   0.00000  Uiso   1.00
C1054  C     0.65155   0.59526   0.22998   0.00000  Uiso   1.00
C1055  C     0.65488   0.40352   0.10560   0.00000  Uiso   1.00
C1056  C     0.58336   0.40084   0.32735   0.00000  Uiso   1.00
C1057  C     0.59610   0.41978   0.54169   0.00000  Uiso   1.00
C1058  C     0.67031   0.42470   0.82297   0.00000  Uiso   1.00
C1059  C     0.65734   0.40337   0.60700   0.00000  Uiso   1.00
C1060  C     0.59780   0.58046   0.91255   0.00000  Uiso   1.00
C1061  C     0.63340   0.56123   0.91298   0.00000  Uiso   1.00
C1062  C     0.69757   0.55034   0.69728   0.00000  Uiso   1.00
C1063  C     0.66204   0.57158   0.69573   0.00000  Uiso   1.00
C1064  C     0.63616   0.56577   0.65444   0.00000  Uiso   1.00
C1065  C     0.63158   0.43802   0.53918   0.00000  Uiso   1.00
C1066  C     0.69449   0.45634   0.57278   0.00000  Uiso   1.00
C1067  C     0.66047   0.43215   0.57255   0.00000  Uiso   1.00
C1068  C     0.66001   0.40166   0.86329   0.00000  Uiso   1.00
C1069  C     0.69940   0.54915   0.94590   0.00000  Uiso   1.00
C1070  C     0.66486   0.57208   0.94147   0.00000  Uiso   1.00
C1071  C     0.64432   0.42803   0.78313   0.00000  Uiso   1.00
C1072  C     0.70302   0.44976   0.82367   0.00000  Uiso   1.00
C1073  C     0.60198   0.58425   0.65272   0.00000  Uiso   1.00
C1074  C     0.60757   0.41212   0.78398   0.00000  Uiso   1.00
C1075  C     0.65338   0.59632   0.73166   0.00000  Uiso   1.00
C1076  C     0.61498   0.61084   0.22795   0.00000  Uiso   1.00
C1077  C     0.69488   0.79190   0.07198   0.00000  Uiso   1.00
C1078  C     0.61890   0.61484   0.48202   0.00000  Uiso   1.00
C1079  C     0.54903   0.62285   0.19521   0.00000  Uiso   1.00
C1080  C     0.59953   0.74984   0.03722   0.00000  Uiso   1.00
C1081  C     0.63107   0.77354   0.03661   0.00000  Uiso   1.00
C1082  C     0.61806   0.72909   0.12004   0.00000  Uiso   1.00
C1083  C     0.65222   0.74888   0.11638   0.00000  Uiso   1.00
C1084  C     0.55468   0.70619   0.07813   0.00000  Uiso   1.00
C1085  C     0.59213   0.72815   0.07828   0.00000  Uiso   1.00
C1086  C     0.66065   0.76757   0.07317   0.00000  Uiso   1.00
C1087  C     0.55297   0.62879   0.44203   0.00000  Uiso   1.00
C1088  C     0.62352   0.71176   0.35039   0.00000  Uiso   1.00
C1089  C     0.65834   0.72958   0.35119   0.00000  Uiso   1.00
C1090  C     0.60058   0.75196   0.28318   0.00000  Uiso   1.00
C1091  C     0.63650   0.76714   0.28281   0.00000  Uiso   1.00
C1092  C     0.55865   0.70310   0.31996   0.00000  Uiso   1.00
C1093  C     0.59586   0.72259   0.31522   0.00000  Uiso   1.00
C1094  C     0.70152   0.77853   0.31990   0.00000  Uiso   1.00
C1095  C     0.66544   0.75673   0.31846   0.00000  Uiso   1.00
C1096  C     0.59130   0.61051   0.44273   0.00000  Uiso   1.00
C1097  C     0.58541   0.60060   0.19448   0.00000  Uiso   1.00
C1098  C     0.70290   0.77971   0.56975   0.00000  Uiso   1.00
C1099  C     0.61601   0.61327   0.73226   0.00000  Uiso   1.00
C1100  C     0.59081   0.60739   0.69293   0.00000  Uiso   1.00
C1101  C     0.55408   0.62683   0.69461   0.00000  Uiso   1.00
C1102  C     0.62092   0.71601   0.60741   0.00000  Uiso   1.00
C1103  C     0.65889   0.73243   0.60481   0.00000  Uiso   1.00
C1104  C     0.60722   0.74150   0.52571   0.00000  Uiso   1.00
C1105  C     0.64241   0.75968   0.52724   0.00000  Uiso   1.00
C1106  C     0.55364   0.70698   0.57239   0.00000  Uiso   1.00
C1107  C     0.59365   0.72140   0.56878   0.00000  Uiso   1.00
C1108  C     0.70429   0.77668   0.82036   0.00000  Uiso   1.00
C1109  C     0.66813   0.75628   0.56624   0.00000  Uiso   1.00
C1110  C     0.55651   0.62982   0.94835   0.00000  Uiso   1.00
C1111  C     0.61985   0.71484   0.85485   0.00000  Uiso   1.00
C1112  C     0.65532   0.73194   0.85895   0.00000  Uiso   1.00
C1113  C     0.60754   0.74336   0.77575   0.00000  Uiso   1.00
C1114  C     0.64255   0.75909   0.77838   0.00000  Uiso   1.00
C1115  C     0.55591   0.70426   0.81441   0.00000  Uiso   1.00
C1116  C     0.59505   0.71940   0.81366   0.00000  Uiso   1.00
C1117  C     0.66789   0.75364   0.81755   0.00000  Uiso   1.00
C1118  C     0.59361   0.60850   0.94572   0.00000  Uiso   1.00
C1119  C     0.62447   0.62011   0.97444   0.00000  Uiso   1.00
C1120  C     0.66069   0.60418   0.97223   0.00000  Uiso   1.00
C1121  C     0.61437   0.93769   0.49280   0.00000  Uiso   1.00
C1122  C     0.66056   0.93533   0.22303   0.00000  Uiso   1.00
C1123  C     0.62633   0.95473   0.22003   0.00000  Uiso   1.00
C1124  C     0.69586   0.87796   0.19939   0.00000  Uiso   1.00
C1125  C     0.66179   0.90182   0.19767   0.00000  Uiso   1.00
C1126  C     0.55738   0.96344   0.19507   0.00000  Uiso   1.00
C1127  C     0.59410   0.94380   0.19060   0.00000  Uiso   1.00
C1128  C     0.62914   0.89112   0.16742   0.00000  Uiso   1.00
C1129  C     0.59609   0.91172   0.16273   0.00000  Uiso   1.00
C1130  C     0.62819   0.89182   0.41067   0.00000  Uiso   1.00
C1131  C     0.59298   0.91177   0.41373   0.00000  Uiso   1.00
C1132  C     0.69180   0.87367   0.45074   0.00000  Uiso   1.00
C1133  C     0.65588   0.89476   0.44918   0.00000  Uiso   1.00
C1134  C     0.55067   0.95592   0.45469   0.00000  Uiso   1.00
C1135  C     0.58686   0.93372   0.45540   0.00000  Uiso   1.00
C1136  C     0.64884   0.91881   0.48901   0.00000  Uiso   1.00
C1137  C     0.65545   0.92137   0.97984   0.00000  Uiso   1.00
C1138  C     0.65815   0.92834   0.73165   0.00000  Uiso   1.00
C1139  C     0.62240   0.94533   0.72832   0.00000  Uiso   1.00
C1140  C     0.69981   0.87691   0.69930   0.00000  Uiso   1.00
C1141  C     0.66513   0.89789   0.70066   0.00000  Uiso   1.00
C1142  C     0.55717   0.95890   0.69524   0.00000  Uiso   1.00
C1143  C     0.59296   0.93657   0.69396   0.00000  Uiso   1.00
C1144  C     0.63506   0.88851   0.66695   0.00000  Uiso   1.00
C1145  C     0.59898   0.90747   0.66292   0.00000  Uiso   1.00
C1146  C     0.63879   0.90057   0.89618   0.00000  Uiso   1.00
C1147  C     0.60348   0.91892   0.90050   0.00000  Uiso   1.00
C1148  C     0.69902   0.87757   0.94001   0.00000  Uiso   1.00
C1149  C     0.66453   0.90069   0.93787   0.00000  Uiso   1.00
C1150  C     0.55669   0.95829   0.94599   0.00000  Uiso   1.00
C1151  C     0.59314   0.93720   0.94538   0.00000  Uiso   1.00
C1152  C     0.61964   0.93823   0.98475   0.00000  Uiso   1.00
C1153  C     0.84851   0.08193   0.10347   0.00000  Uiso   1.00
C1154  C     0.88324   0.06434   0.10344   0.00000  Uiso   1.00
C1155  C     0.80258   0.12881   0.06621   0.00000  Uiso   1.00
C1156  C     0.83905   0.10748   0.06685   0.00000  Uiso   1.00
C1157  C     0.94497   0.04701   0.06262   0.00000  Uiso   1.00
C1158  C     0.90857   0.06890   0.06341   0.00000  Uiso   1.00
C1159  C     0.86529   0.11218   0.02625   0.00000  Uiso   1.00
C1160  C     0.90070   0.09241   0.02416   0.00000  Uiso   1.00
C1161  C     0.85217   0.08599   0.35918   0.00000  Uiso   1.00
C1162  C     0.88638   0.06542   0.35332   0.00000  Uiso   1.00
C1163  C     0.80224   0.12884   0.32022   0.00000  Uiso   1.00
C1164  C     0.83953   0.10847   0.31938   0.00000  Uiso   1.00
C1165  C     0.94525   0.04729   0.30964   0.00000  Uiso   1.00
C1166  C     0.91007   0.07084   0.31283   0.00000  Uiso   1.00
C1167  C     0.86462   0.11450   0.27646   0.00000  Uiso   1.00
C1168  C     0.89857   0.09463   0.27240   0.00000  Uiso   1.00
C1169  C     0.86814   0.11116   0.53396   0.00000  Uiso   1.00
C1170  C     0.90063   0.08913   0.53497   0.00000  Uiso   1.00
C1171  C     0.80284   0.12726   0.56837   0.00000  Uiso   1.00
C1172  C     0.83785   0.10549   0.56790   0.00000  Uiso   1.00
C1173  C     0.94066   0.04117   0.57104   0.00000  Uiso   1.00
C1174  C     0.90478   0.06370   0.57226   0.00000  Uiso   1.00
C1175  C     0.83974   0.07758   0.60239   0.00000  Uiso   1.00
C1176  C     0.87430   0.05719   0.60660   0.00000  Uiso   1.00
C1177  C     0.84275   0.07650   0.85204   0.00000  Uiso   1.00
C1178  C     0.87874   0.05743   0.85065   0.00000  Uiso   1.00
C1179  C     0.80120   0.12613   0.81773   0.00000  Uiso   1.00
C1180  C     0.83624   0.10490   0.81656   0.00000  Uiso   1.00
C1181  C     0.94440   0.04349   0.81402   0.00000  Uiso   1.00
C1182  C     0.90749   0.06534   0.81314   0.00000  Uiso   1.00
C1183  C     0.86334   0.11231   0.78138   0.00000  Uiso   1.00
C1184  C     0.89879   0.09322   0.77831   0.00000  Uiso   1.00
C1185  C     0.87573   0.21031   0.16085   0.00000  Uiso   1.00
C1186  C     0.88915   0.26381   0.23019   0.00000  Uiso   1.00
C1187  C     0.85389   0.24658   0.23023   0.00000  Uiso   1.00
C1188  C     0.91205   0.22839   0.16106   0.00000  Uiso   1.00
C1189  C     0.88016   0.27145   0.47905   0.00000  Uiso   1.00
C1190  C     0.95096   0.28095   0.19374   0.00000  Uiso   1.00
C1191  C     0.91951   0.25413   0.19756   0.00000  Uiso   1.00
C1192  C     0.84428   0.25451   0.47905   0.00000  Uiso   1.00
C1193  C     0.84630   0.21984   0.19521   0.00000  Uiso   1.00
C1194  C     0.94719   0.37849   0.06487   0.00000  Uiso   1.00
C1195  C     0.89674   0.24464   0.40047   0.00000  Uiso   1.00
C1196  C     0.86055   0.22684   0.39746   0.00000  Uiso   1.00
C1197  C     0.94342   0.28706   0.44484   0.00000  Uiso   1.00
C1198  C     0.90660   0.26606   0.44347   0.00000  Uiso   1.00
C1199  C     0.83411   0.23166   0.43707   0.00000  Uiso   1.00
C1200  C     0.94083   0.37960   0.32115   0.00000  Uiso   1.00
C1201  C     0.87667   0.39373   0.28342   0.00000  Uiso   1.00
C1202  C     0.79783   0.21000   0.43665   0.00000  Uiso   1.00
C1203  C     0.80870   0.20169   0.19519   0.00000  Uiso   1.00
C1204  C     0.85971   0.22920   0.65452   0.00000  Uiso   1.00
C1205  C     0.80568   0.20310   0.94205   0.00000  Uiso   1.00
C1206  C     0.88843   0.39968   0.78708   0.00000  Uiso   1.00
C1207  C     0.88038   0.27044   0.73688   0.00000  Uiso   1.00
C1208  C     0.84600   0.25166   0.73510   0.00000  Uiso   1.00
C1209  C     0.89519   0.24709   0.65590   0.00000  Uiso   1.00
C1210  C     0.85456   0.24528   0.98210   0.00000  Uiso   1.00
C1211  C     0.94343   0.29077   0.69700   0.00000  Uiso   1.00
C1212  C     0.90615   0.26919   0.69707   0.00000  Uiso   1.00
C1213  C     0.83582   0.22990   0.69522   0.00000  Uiso   1.00
C1214  C     0.94537   0.37866   0.56818   0.00000  Uiso   1.00
C1215  C     0.89083   0.26241   0.98388   0.00000  Uiso   1.00
C1216  C     0.80279   0.20621   0.69293   0.00000  Uiso   1.00
C1217  C     0.90517   0.23636   0.90247   0.00000  Uiso   1.00
C1218  C     0.87005   0.21826   0.90262   0.00000  Uiso   1.00
C1219  C     0.95353   0.28038   0.94342   0.00000  Uiso   1.00
C1220  C     0.91658   0.25827   0.94317   0.00000  Uiso   1.00
C1221  C     0.84356   0.22287   0.94364   0.00000  Uiso   1.00
C1222  C     0.95431   0.38732   0.82144   0.00000  Uiso   1.00
C1223  C     0.88073   0.39919   0.53059   0.00000  Uiso   1.00
C1224  C     0.84730   0.58088   0.15579   0.00000  Uiso   1.00
C1225  C     0.84031   0.55739   0.44569   0.00000  Uiso   1.00
C1226  C     0.87043   0.54810   0.47926   0.00000  Uiso   1.00
C1227  C     0.84094   0.41194   0.28379   0.00000  Uiso   1.00
C1228  C     0.90053   0.43037   0.35040   0.00000  Uiso   1.00
C1229  C     0.85047   0.42227   0.02769   0.00000  Uiso   1.00
C1230  C     0.90271   0.57678   0.23101   0.00000  Uiso   1.00
C1231  C     0.87154   0.44548   0.10915   0.00000  Uiso   1.00
C1232  C     0.90545   0.42535   0.10308   0.00000  Uiso   1.00
C1233  C     0.86840   0.55813   0.23617   0.00000  Uiso   1.00
C1234  C     0.80653   0.46754   0.07073   0.00000  Uiso   1.00
C1235  C     0.84290   0.44407   0.07073   0.00000  Uiso   1.00
C1236  C     0.84544   0.58639   0.41244   0.00000  Uiso   1.00
C1237  C     0.80370   0.53643   0.44347   0.00000  Uiso   1.00
C1238  C     0.80199   0.54083   0.20196   0.00000  Uiso   1.00
C1239  C     0.83935   0.56065   0.19961   0.00000  Uiso   1.00
C1240  C     0.88467   0.40289   0.02318   0.00000  Uiso   1.00
C1241  C     0.86476   0.44707   0.35410   0.00000  Uiso   1.00
C1242  C     0.79963   0.46070   0.31954   0.00000  Uiso   1.00
C1243  C     0.83421   0.43975   0.31828   0.00000  Uiso   1.00
C1244  C     0.90736   0.40303   0.31669   0.00000  Uiso   1.00
C1245  C     0.90367   0.56948   0.48131   0.00000  Uiso   1.00
C1246  C     0.91161   0.59664   0.44630   0.00000  Uiso   1.00
C1247  C     0.91283   0.40333   0.06244   0.00000  Uiso   1.00
C1248  C     0.85247   0.41702   0.78796   0.00000  Uiso   1.00
C1249  C     0.90461   0.57121   0.73964   0.00000  Uiso   1.00
C1250  C     0.85084   0.58424   0.66243   0.00000  Uiso   1.00
C1251  C     0.84421   0.59046   0.90912   0.00000  Uiso   1.00
C1252  C     0.83823   0.56402   0.94524   0.00000  Uiso   1.00
C1253  C     0.91583   0.59238   0.69874   0.00000  Uiso   1.00
C1254  C     0.84546   0.41760   0.53646   0.00000  Uiso   1.00
C1255  C     0.90080   0.58044   0.98462   0.00000  Uiso   1.00
C1256  C     0.86845   0.44149   0.61722   0.00000  Uiso   1.00
C1257  C     0.86508   0.56070   0.98439   0.00000  Uiso   1.00
C1258  C     0.80474   0.46224   0.57629   0.00000  Uiso   1.00
C1259  C     0.84127   0.44125   0.57721   0.00000  Uiso   1.00
C1260  C     0.80285   0.54195   0.94478   0.00000  Uiso   1.00
C1261  C     0.90247   0.42165   0.61293   0.00000  Uiso   1.00
C1262  C     0.86838   0.55440   0.74302   0.00000  Uiso   1.00
C1263  C     0.80409   0.54135   0.70078   0.00000  Uiso   1.00
C1264  C     0.84077   0.56086   0.70270   0.00000  Uiso   1.00
C1265  C     0.87545   0.45471   0.85535   0.00000  Uiso   1.00
C1266  C     0.91068   0.43730   0.85411   0.00000  Uiso   1.00
C1267  C     0.81018   0.46533   0.82164   0.00000  Uiso   1.00
C1268  C     0.84671   0.44525   0.82117   0.00000  Uiso   1.00
C1269  C     0.91838   0.40973   0.81926   0.00000  Uiso   1.00
C1270  C     0.90887   0.40034   0.56859   0.00000  Uiso   1.00
C1271  C     0.88898   0.59949   0.66413   0.00000  Uiso   1.00
C1272  C     0.94311   0.62499   0.19188   0.00000  Uiso   1.00
C1273  C     0.85067   0.74642   0.10368   0.00000  Uiso   1.00
C1274  C     0.88804   0.73091   0.10605   0.00000  Uiso   1.00
C1275  C     0.87223   0.78221   0.28892   0.00000  Uiso   1.00
C1276  C     0.84178   0.77371   0.06889   0.00000  Uiso   1.00
C1277  C     0.95495   0.72438   0.07211   0.00000  Uiso   1.00
C1278  C     0.91724   0.74388   0.07475   0.00000  Uiso   1.00
C1279  C     0.87223   0.78631   0.03778   0.00000  Uiso   1.00
C1280  C     0.90890   0.77272   0.04168   0.00000  Uiso   1.00
C1281  C     0.94764   0.61800   0.44604   0.00000  Uiso   1.00
C1282  C     0.84741   0.78265   0.32949   0.00000  Uiso   1.00
C1283  C     0.90872   0.76431   0.29256   0.00000  Uiso   1.00
C1284  C     0.95148   0.72022   0.33138   0.00000  Uiso   1.00
C1285  C     0.91695   0.74421   0.33412   0.00000  Uiso   1.00
C1286  C     0.85659   0.76243   0.37379   0.00000  Uiso   1.00
C1287  C     0.89025   0.74111   0.37359   0.00000  Uiso   1.00
C1288  C     0.88057   0.60248   0.15302   0.00000  Uiso   1.00
C1289  C     0.90920   0.60003   0.19004   0.00000  Uiso   1.00
C1290  C     0.88074   0.60576   0.41389   0.00000  Uiso   1.00
C1291  C     0.80441   0.79357   0.06733   0.00000  Uiso   1.00
C1292  C     0.95177   0.61344   0.69792   0.00000  Uiso   1.00
C1293  C     0.87419   0.77909   0.53692   0.00000  Uiso   1.00
C1294  C     0.90812   0.75993   0.54009   0.00000  Uiso   1.00
C1295  C     0.84693   0.77603   0.57553   0.00000  Uiso   1.00
C1296  C     0.94873   0.71053   0.57902   0.00000  Uiso   1.00
C1297  C     0.91480   0.73383   0.57869   0.00000  Uiso   1.00
C1298  C     0.85348   0.75215   0.61570   0.00000  Uiso   1.00
C1299  C     0.88702   0.73109   0.61670   0.00000  Uiso   1.00
C1300  C     0.94152   0.62951   0.94702   0.00000  Uiso   1.00
C1301  C     0.85306   0.74716   0.86426   0.00000  Uiso   1.00
C1302  C     0.88892   0.72821   0.86403   0.00000  Uiso   1.00
C1303  C     0.84489   0.77102   0.82596   0.00000  Uiso   1.00
C1304  C     0.94936   0.71078   0.82247   0.00000  Uiso   1.00
C1305  C     0.91408   0.73219   0.82442   0.00000  Uiso   1.00
C1306  C     0.87292   0.77799   0.78880   0.00000  Uiso   1.00
C1307  C     0.90816   0.76062   0.79134   0.00000  Uiso   1.00
C1308  C     0.80927   0.79198   0.82287   0.00000  Uiso   1.00
C1309  C     0.87639   0.61402   0.91249   0.00000  Uiso   1.00
C1310  C     0.80990   0.79605   0.57495   0.00000  Uiso   1.00
C1311  C     0.90479   0.60876   0.95072   0.00000  Uiso   1.00
C1312  C     0.88138   0.93971   0.47964   0.00000  Uiso   1.00
C1313  C     0.88803   0.93040   0.23444   0.00000  Uiso   1.00
C1314  C     0.85139   0.91408   0.23508   0.00000  Uiso   1.00
C1315  C     0.90115   0.90497   0.15258   0.00000  Uiso   1.00
C1316  C     0.86454   0.89014   0.15187   0.00000  Uiso   1.00
C1317  C     0.94799   0.94963   0.19095   0.00000  Uiso   1.00
C1318  C     0.91334   0.92664   0.19344   0.00000  Uiso   1.00
C1319  C     0.80292   0.87238   0.19555   0.00000  Uiso   1.00
C1320  C     0.83972   0.89330   0.19449   0.00000  Uiso   1.00
C1321  C     0.84425   0.92149   0.48214   0.00000  Uiso   1.00
C1322  C     0.89843   0.90760   0.40532   0.00000  Uiso   1.00
C1323  C     0.86479   0.88680   0.41121   0.00000  Uiso   1.00
C1324  C     0.94375   0.95559   0.43715   0.00000  Uiso   1.00
C1325  C     0.90615   0.93513   0.43980   0.00000  Uiso   1.00
C1326  C     0.79798   0.87640   0.44579   0.00000  Uiso   1.00
C1327  C     0.83457   0.89822   0.44324   0.00000  Uiso   1.00
C1328  C     0.80853   0.80012   0.32473   0.00000  Uiso   1.00
C1329  C     0.84988   0.91869   0.97612   0.00000  Uiso   1.00
C1330  C     0.89644   0.91945   0.74003   0.00000  Uiso   1.00
C1331  C     0.85999   0.90207   0.74193   0.00000  Uiso   1.00
C1332  C     0.91308   0.89155   0.66233   0.00000  Uiso   1.00
C1333  C     0.87631   0.87428   0.66202   0.00000  Uiso   1.00
C1334  C     0.95419   0.94189   0.69687   0.00000  Uiso   1.00
C1335  C     0.92346   0.91602   0.70204   0.00000  Uiso   1.00
C1336  C     0.81065   0.86097   0.69856   0.00000  Uiso   1.00
C1337  C     0.84988   0.87839   0.70247   0.00000  Uiso   1.00
C1338  C     0.88709   0.93301   0.97689   0.00000  Uiso   1.00
C1339  C     0.90692   0.89791   0.90494   0.00000  Uiso   1.00
C1340  C     0.86992   0.88141   0.90657   0.00000  Uiso   1.00
C1341  C     0.94933   0.94880   0.93956   0.00000  Uiso   1.00
C1342  C     0.91513   0.92577   0.94091   0.00000  Uiso   1.00
C1343  C     0.80550   0.87144   0.94335   0.00000  Uiso   1.00
C1344  C     0.84222   0.89027   0.94326   0.00000  Uiso   1.00
O1345  O     0.21612   0.12201   0.35610   0.00000  Uiso   1.00
O1346  O     0.03749   0.03089   0.27188   0.00000  Uiso   1.00
O1347  O     0.03943   0.02877   0.35888   0.00000  Uiso   1.00
O1348  O     0.04018   0.02930   0.01813   0.00000  Uiso   1.00
O1349  O     0.20609   0.13772   0.10867   0.00000  Uiso   1.00
O1350  O     0.04015   0.02594   0.10503   0.00000  Uiso   1.00
O1351  O     0.20696   0.13390   0.27104   0.00000  Uiso   1.00
O1352  O     0.20916   0.13019   0.02244   0.00000  Uiso   1.00
O1353  O     0.20933   0.19763   0.39561   0.00000  Uiso   1.00
O1354  O     0.03743   0.02863   0.52422   0.00000  Uiso   1.00
O1355  O     0.04229   0.02643   0.76883   0.00000  Uiso   1.00
O1356  O     0.20989   0.12916   0.86389   0.00000  Uiso   1.00
O1357  O     0.21061   0.19673   0.98392   0.00000  Uiso   1.00
O1358  O     0.20593   0.14045   0.62018   0.00000  Uiso   1.00
O1359  O     0.03770   0.03246   0.85502   0.00000  Uiso   1.00
O1360  O     0.03620   0.02471   0.61109   0.00000  Uiso   1.00
O1361  O     0.21104   0.12739   0.77763   0.00000  Uiso   1.00
O1362  O     0.21234   0.13048   0.53317   0.00000  Uiso   1.00
O1363  O     0.20875   0.19817   0.73501   0.00000  Uiso   1.00
O1364  O     0.03840   0.36227   0.27756   0.00000  Uiso   1.00
O1365  O     0.03931   0.36202   0.11286   0.00000  Uiso   1.00
O1366  O     0.03668   0.36363   0.36485   0.00000  Uiso   1.00
O1367  O     0.21026   0.20569   0.14486   0.00000  Uiso   1.00
O1368  O     0.03694   0.29594   0.48630   0.00000  Uiso   1.00
O1369  O     0.03720   0.30098   0.40052   0.00000  Uiso   1.00
O1370  O     0.04373   0.36132   0.02505   0.00000  Uiso   1.00
O1371  O     0.03916   0.30669   0.23955   0.00000  Uiso   1.00
O1372  O     0.03884   0.30550   0.15235   0.00000  Uiso   1.00
O1373  O     0.21066   0.20012   0.23102   0.00000  Uiso   1.00
O1374  O     0.21188   0.20063   0.48367   0.00000  Uiso   1.00
O1375  O     0.04358   0.36266   0.78223   0.00000  Uiso   1.00
O1376  O     0.03641   0.36438   0.61417   0.00000  Uiso   1.00
O1377  O     0.04025   0.36472   0.86626   0.00000  Uiso   1.00
O1378  O     0.04268   0.30199   0.98710   0.00000  Uiso   1.00
O1379  O     0.04255   0.30795   0.90294   0.00000  Uiso   1.00
O1380  O     0.21569   0.20178   0.89884   0.00000  Uiso   1.00
O1381  O     0.04225   0.35472   0.52844   0.00000  Uiso   1.00
O1382  O     0.21693   0.21101   0.65316   0.00000  Uiso   1.00
O1383  O     0.03995   0.30766   0.73424   0.00000  Uiso   1.00
O1384  O     0.03980   0.30536   0.64765   0.00000  Uiso   1.00
O1385  O     0.21387   0.46430   0.03187   0.00000  Uiso   1.00
O1386  O     0.20226   0.53130   0.24396   0.00000  Uiso   1.00
O1387  O     0.21154   0.54076   0.15986   0.00000  Uiso   1.00
O1388  O     0.21239   0.45966   0.36862   0.00000  Uiso   1.00
O1389  O     0.20469   0.47247   0.11840   0.00000  Uiso   1.00
O1390  O     0.20941   0.45946   0.28340   0.00000  Uiso   1.00
O1391  O     0.21202   0.53539   0.41072   0.00000  Uiso   1.00
O1392  O     0.20831   0.53081   0.49567   0.00000  Uiso   1.00
O1393  O     0.20714   0.53689   0.99181   0.00000  Uiso   1.00
O1394  O     0.21272   0.46203   0.52883   0.00000  Uiso   1.00
O1395  O     0.20751   0.52518   0.65785   0.00000  Uiso   1.00
O1396  O     0.21190   0.46370   0.87185   0.00000  Uiso   1.00
O1397  O     0.21535   0.45890   0.78393   0.00000  Uiso   1.00
O1398  O     0.21216   0.45729   0.61377   0.00000  Uiso   1.00
O1399  O     0.20653   0.53327   0.90669   0.00000  Uiso   1.00
O1400  O     0.21528   0.53682   0.74322   0.00000  Uiso   1.00
O1401  O     0.04128   0.63583   0.40656   0.00000  Uiso   1.00
O1402  O     0.03855   0.69737   0.27771   0.00000  Uiso   1.00
O1403  O     0.04179   0.70041   0.02760   0.00000  Uiso   1.00
O1404  O     0.04036   0.63428   0.49340   0.00000  Uiso   1.00
O1405  O     0.04382   0.69316   0.36434   0.00000  Uiso   1.00
O1406  O     0.21369   0.79722   0.35656   0.00000  Uiso   1.00
O1407  O     0.21133   0.79558   0.02711   0.00000  Uiso   1.00
O1408  O     0.03801   0.64114   0.15907   0.00000  Uiso   1.00
O1409  O     0.03250   0.63662   0.24528   0.00000  Uiso   1.00
O1410  O     0.04496   0.69738   0.11518   0.00000  Uiso   1.00
O1411  O     0.21093   0.79841   0.26913   0.00000  Uiso   1.00
O1412  O     0.03162   0.63095   0.90956   0.00000  Uiso   1.00
O1413  O     0.04010   0.69391   0.77728   0.00000  Uiso   1.00
O1414  O     0.04034   0.69421   0.53119   0.00000  Uiso   1.00
O1415  O     0.04641   0.69072   0.61791   0.00000  Uiso   1.00
O1416  O     0.21370   0.79305   0.76853   0.00000  Uiso   1.00
O1417  O     0.04379   0.69166   0.86157   0.00000  Uiso   1.00
O1418  O     0.20816   0.79845   0.52158   0.00000  Uiso   1.00
O1419  O     0.21333   0.79111   0.85505   0.00000  Uiso   1.00
O1420  O     0.04005   0.64028   0.99309   0.00000  Uiso   1.00
O1421  O     0.04533   0.63603   0.65510   0.00000  Uiso   1.00
O1422  O     0.03640   0.63055   0.73977   0.00000  Uiso   1.00
O1423  O     0.03680   0.97216   0.48132   0.00000  Uiso   1.00
O1424  O     0.03959   0.97185   0.14281   0.00000  Uiso   1.00
O1425  O     0.21928   0.88258   0.14858   0.00000  Uiso   1.00
O1426  O     0.03605   0.97270   0.22900   0.00000  Uiso   1.00
O1427  O     0.20585   0.86756   0.22955   0.00000  Uiso   1.00
O1428  O     0.03697   0.97329   0.39585   0.00000  Uiso   1.00
O1429  O     0.20546   0.86995   0.39913   0.00000  Uiso   1.00
O1430  O     0.20746   0.87035   0.48663   0.00000  Uiso   1.00
O1431  O     0.21156   0.80689   0.11297   0.00000  Uiso   1.00
O1432  O     0.03605   0.96354   0.64649   0.00000  Uiso   1.00
O1433  O     0.20907   0.86715   0.65456   0.00000  Uiso   1.00
O1434  O     0.04663   0.97763   0.72930   0.00000  Uiso   1.00
O1435  O     0.21307   0.87025   0.74196   0.00000  Uiso   1.00
O1436  O     0.04082   0.97204   0.89162   0.00000  Uiso   1.00
O1437  O     0.21050   0.86807   0.89331   0.00000  Uiso   1.00
O1438  O     0.03435   0.96423   0.97602   0.00000  Uiso   1.00
O1439  O     0.20992   0.86874   0.97992   0.00000  Uiso   1.00
O1440  O     0.21115   0.80021   0.60694   0.00000  Uiso   1.00
O1441  O     0.28836   0.19675   0.23610   0.00000  Uiso   1.00
O1442  O     0.45261   0.02043   0.36424   0.00000  Uiso   1.00
O1443  O     0.29050   0.13185   0.35511   0.00000  Uiso   1.00
O1444  O     0.28531   0.13290   0.26820   0.00000  Uiso   1.00
O1445  O     0.46188   0.03591   0.27853   0.00000  Uiso   1.00
O1446  O     0.45681   0.03199   0.02460   0.00000  Uiso   1.00
O1447  O     0.28842   0.13256   0.02386   0.00000  Uiso   1.00
O1448  O     0.46618   0.04217   0.10963   0.00000  Uiso   1.00
O1449  O     0.28781   0.13776   0.11009   0.00000  Uiso   1.00
O1450  O     0.29340   0.18534   0.39807   0.00000  Uiso   1.00
O1451  O     0.29144   0.18791   0.48416   0.00000  Uiso   1.00
O1452  O     0.46437   0.03487   0.85944   0.00000  Uiso   1.00
O1453  O     0.29201   0.13511   0.85616   0.00000  Uiso   1.00
O1454  O     0.29660   0.19452   0.89503   0.00000  Uiso   1.00
O1455  O     0.45700   0.02795   0.77313   0.00000  Uiso   1.00
O1456  O     0.46127   0.03666   0.53371   0.00000  Uiso   1.00
O1457  O     0.28761   0.13150   0.52902   0.00000  Uiso   1.00
O1458  O     0.46377   0.03695   0.61829   0.00000  Uiso   1.00
O1459  O     0.29509   0.14592   0.61320   0.00000  Uiso   1.00
O1460  O     0.29118   0.13389   0.77145   0.00000  Uiso   1.00
O1461  O     0.29477   0.19354   0.98165   0.00000  Uiso   1.00
O1462  O     0.28964   0.19369   0.73953   0.00000  Uiso   1.00
O1463  O     0.29180   0.19991   0.65106   0.00000  Uiso   1.00
O1464  O     0.45519   0.29945   0.49613   0.00000  Uiso   1.00
O1465  O     0.45801   0.29677   0.40835   0.00000  Uiso   1.00
O1466  O     0.45572   0.36924   0.36659   0.00000  Uiso   1.00
O1467  O     0.45395   0.30469   0.24550   0.00000  Uiso   1.00
O1468  O     0.46105   0.30001   0.15869   0.00000  Uiso   1.00
O1469  O     0.45473   0.37194   0.03463   0.00000  Uiso   1.00
O1470  O     0.46136   0.37225   0.12146   0.00000  Uiso   1.00
O1471  O     0.46158   0.37344   0.27897   0.00000  Uiso   1.00
O1472  O     0.28945   0.20000   0.14916   0.00000  Uiso   1.00
O1473  O     0.45499   0.30970   0.90750   0.00000  Uiso   1.00
O1474  O     0.45975   0.30055   0.99015   0.00000  Uiso   1.00
O1475  O     0.46900   0.38220   0.86471   0.00000  Uiso   1.00
O1476  O     0.45843   0.30129   0.74775   0.00000  Uiso   1.00
O1477  O     0.46184   0.29729   0.65989   0.00000  Uiso   1.00
O1478  O     0.45716   0.36728   0.53315   0.00000  Uiso   1.00
O1479  O     0.46299   0.36980   0.62140   0.00000  Uiso   1.00
O1480  O     0.46475   0.37597   0.78221   0.00000  Uiso   1.00
O1481  O     0.28923   0.47163   0.36431   0.00000  Uiso   1.00
O1482  O     0.28565   0.53375   0.48728   0.00000  Uiso   1.00
O1483  O     0.28812   0.47289   0.12282   0.00000  Uiso   1.00
O1484  O     0.29151   0.52731   0.40008   0.00000  Uiso   1.00
O1485  O     0.28753   0.53251   0.16092   0.00000  Uiso   1.00
O1486  O     0.28621   0.52947   0.24691   0.00000  Uiso   1.00
O1487  O     0.29386   0.47949   0.03736   0.00000  Uiso   1.00
O1488  O     0.28628   0.47089   0.27884   0.00000  Uiso   1.00
O1489  O     0.29184   0.47468   0.87110   0.00000  Uiso   1.00
O1490  O     0.29209   0.52758   0.74138   0.00000  Uiso   1.00
O1491  O     0.29452   0.47239   0.78664   0.00000  Uiso   1.00
O1492  O     0.29122   0.46375   0.61879   0.00000  Uiso   1.00
O1493  O     0.28625   0.53717   0.90390   0.00000  Uiso   1.00
O1494  O     0.29364   0.52033   0.65754   0.00000  Uiso   1.00
O1495  O     0.29305   0.47261   0.53369   0.00000  Uiso   1.00
O1496  O     0.29036   0.53527   0.99024   0.00000  Uiso   1.00
O1497  O     0.45543   0.63778   0.48756   0.00000  Uiso   1.00
O1498  O     0.46297   0.70439   0.02673   0.00000  Uiso   1.00
O1499  O     0.45758   0.70349   0.36330   0.00000  Uiso   1.00
O1500  O     0.46632   0.70847   0.11320   0.00000  Uiso   1.00
O1501  O     0.45451   0.70031   0.27613   0.00000  Uiso   1.00
O1502  O     0.46299   0.62582   0.23652   0.00000  Uiso   1.00
O1503  O     0.46282   0.62928   0.40280   0.00000  Uiso   1.00
O1504  O     0.45171   0.63548   0.15427   0.00000  Uiso   1.00
O1505  O     0.45776   0.70134   0.61025   0.00000  Uiso   1.00
O1506  O     0.46009   0.70209   0.86579   0.00000  Uiso   1.00
O1507  O     0.45972   0.63228   0.65074   0.00000  Uiso   1.00
O1508  O     0.46100   0.70268   0.78050   0.00000  Uiso   1.00
O1509  O     0.46218   0.70630   0.52544   0.00000  Uiso   1.00
O1510  O     0.45891   0.63007   0.73679   0.00000  Uiso   1.00
O1511  O     0.46117   0.63155   0.89969   0.00000  Uiso   1.00
O1512  O     0.46422   0.63075   0.98736   0.00000  Uiso   1.00
O1513  O     0.46153   0.95108   0.40492   0.00000  Uiso   1.00
O1514  O     0.29580   0.81638   0.35684   0.00000  Uiso   1.00
O1515  O     0.46535   0.96193   0.23273   0.00000  Uiso   1.00
O1516  O     0.28542   0.86672   0.48050   0.00000  Uiso   1.00
O1517  O     0.29563   0.81797   0.10455   0.00000  Uiso   1.00
O1518  O     0.28780   0.80017   0.02168   0.00000  Uiso   1.00
O1519  O     0.29209   0.86670   0.23363   0.00000  Uiso   1.00
O1520  O     0.45845   0.96730   0.14627   0.00000  Uiso   1.00
O1521  O     0.28209   0.87298   0.39544   0.00000  Uiso   1.00
O1522  O     0.29322   0.86891   0.14633   0.00000  Uiso   1.00
O1523  O     0.45361   0.96535   0.48818   0.00000  Uiso   1.00
O1524  O     0.28763   0.80060   0.27399   0.00000  Uiso   1.00
O1525  O     0.45658   0.96263   0.89807   0.00000  Uiso   1.00
O1526  O     0.29125   0.81014   0.51995   0.00000  Uiso   1.00
O1527  O     0.29390   0.80649   0.77831   0.00000  Uiso   1.00
O1528  O     0.28999   0.85768   0.98277   0.00000  Uiso   1.00
O1529  O     0.29203   0.86165   0.73364   0.00000  Uiso   1.00
O1530  O     0.46610   0.95628   0.73345   0.00000  Uiso   1.00
O1531  O     0.29328   0.85305   0.89471   0.00000  Uiso   1.00
O1532  O     0.28882   0.86617   0.64791   0.00000  Uiso   1.00
O1533  O     0.46005   0.96326   0.64857   0.00000  Uiso   1.00
O1534  O     0.45992   0.96275   0.98287   0.00000  Uiso   1.00
O1535  O     0.29313   0.80954   0.60606   0.00000  Uiso   1.00
O1536  O     0.28935   0.80052   0.86396   0.00000  Uiso   1.00
O1537  O     0.70309   0.13479   0.35931   0.00000  Uiso   1.00
O1538  O     0.53978   0.03059   0.28435   0.00000  Uiso   1.00
O1539  O     0.70919   0.13019   0.11672   0.00000  Uiso   1.00
O1540  O     0.53757   0.02418   0.37064   0.00000  Uiso   1.00
O1541  O     0.54456   0.02212   0.11034   0.00000  Uiso   1.00
O1542  O     0.70708   0.13419   0.27389   0.00000  Uiso   1.00
O1543  O     0.70760   0.13080   0.02848   0.00000  Uiso   1.00
O1544  O     0.53430   0.03184   0.02619   0.00000  Uiso   1.00
O1545  O     0.54083   0.02484   0.86702   0.00000  Uiso   1.00
O1546  O     0.54392   0.02357   0.78145   0.00000  Uiso   1.00
O1547  O     0.70555   0.19886   0.98890   0.00000  Uiso   1.00
O1548  O     0.70841   0.13382   0.61261   0.00000  Uiso   1.00
O1549  O     0.70331   0.13956   0.85958   0.00000  Uiso   1.00
O1550  O     0.54109   0.02496   0.60496   0.00000  Uiso   1.00
O1551  O     0.71194   0.12995   0.77527   0.00000  Uiso   1.00
O1552  O     0.70871   0.13328   0.52479   0.00000  Uiso   1.00
O1553  O     0.53922   0.02864   0.51602   0.00000  Uiso   1.00
O1554  O     0.53478   0.36749   0.28495   0.00000  Uiso   1.00
O1555  O     0.54221   0.36176   0.11776   0.00000  Uiso   1.00
O1556  O     0.53502   0.36559   0.37099   0.00000  Uiso   1.00
O1557  O     0.53894   0.30885   0.24427   0.00000  Uiso   1.00
O1558  O     0.53679   0.30544   0.40440   0.00000  Uiso   1.00
O1559  O     0.53709   0.30293   0.49228   0.00000  Uiso   1.00
O1560  O     0.54000   0.30658   0.15757   0.00000  Uiso   1.00
O1561  O     0.71517   0.21056   0.23339   0.00000  Uiso   1.00
O1562  O     0.53690   0.36998   0.03132   0.00000  Uiso   1.00
O1563  O     0.71018   0.20517   0.49096   0.00000  Uiso   1.00
O1564  O     0.70903   0.20620   0.40474   0.00000  Uiso   1.00
O1565  O     0.70900   0.20418   0.14766   0.00000  Uiso   1.00
O1566  O     0.71039   0.20279   0.73225   0.00000  Uiso   1.00
O1567  O     0.54342   0.36156   0.78089   0.00000  Uiso   1.00
O1568  O     0.54408   0.35781   0.61932   0.00000  Uiso   1.00
O1569  O     0.54123   0.36485   0.86873   0.00000  Uiso   1.00
O1570  O     0.53471   0.30123   0.66195   0.00000  Uiso   1.00
O1571  O     0.54208   0.30890   0.90659   0.00000  Uiso   1.00
O1572  O     0.71145   0.20780   0.90226   0.00000  Uiso   1.00
O1573  O     0.53940   0.36337   0.53407   0.00000  Uiso   1.00
O1574  O     0.53848   0.30442   0.74915   0.00000  Uiso   1.00
O1575  O     0.53892   0.31031   0.99367   0.00000  Uiso   1.00
O1576  O     0.70282   0.20042   0.64776   0.00000  Uiso   1.00
O1577  O     0.71343   0.54037   0.49112   0.00000  Uiso   1.00
O1578  O     0.71112   0.46350   0.11481   0.00000  Uiso   1.00
O1579  O     0.71439   0.46423   0.02884   0.00000  Uiso   1.00
O1580  O     0.70821   0.53862   0.23568   0.00000  Uiso   1.00
O1581  O     0.71295   0.45773   0.36545   0.00000  Uiso   1.00
O1582  O     0.70078   0.46940   0.28133   0.00000  Uiso   1.00
O1583  O     0.70691   0.53502   0.14935   0.00000  Uiso   1.00
O1584  O     0.70508   0.53058   0.40633   0.00000  Uiso   1.00
O1585  O     0.70797   0.46814   0.61606   0.00000  Uiso   1.00
O1586  O     0.71880   0.45958   0.86649   0.00000  Uiso   1.00
O1587  O     0.70744   0.46885   0.52981   0.00000  Uiso   1.00
O1588  O     0.71260   0.54015   0.65455   0.00000  Uiso   1.00
O1589  O     0.71326   0.46451   0.78340   0.00000  Uiso   1.00
O1590  O     0.71343   0.53914   0.90157   0.00000  Uiso   1.00
O1591  O     0.70865   0.53627   0.73984   0.00000  Uiso   1.00
O1592  O     0.70850   0.53749   0.98976   0.00000  Uiso   1.00
O1593  O     0.53810   0.63741   0.39922   0.00000  Uiso   1.00
O1594  O     0.54010   0.69567   0.27779   0.00000  Uiso   1.00
O1595  O     0.54017   0.69820   0.03402   0.00000  Uiso   1.00
O1596  O     0.54345   0.69674   0.36457   0.00000  Uiso   1.00
O1597  O     0.71211   0.79299   0.36407   0.00000  Uiso   1.00
O1598  O     0.53820   0.63845   0.48477   0.00000  Uiso   1.00
O1599  O     0.53379   0.63282   0.15406   0.00000  Uiso   1.00
O1600  O     0.53850   0.63496   0.23935   0.00000  Uiso   1.00
O1601  O     0.53939   0.69340   0.11984   0.00000  Uiso   1.00
O1602  O     0.71361   0.79247   0.27734   0.00000  Uiso   1.00
O1603  O     0.71042   0.79843   0.02769   0.00000  Uiso   1.00
O1604  O     0.53920   0.63692   0.90574   0.00000  Uiso   1.00
O1605  O     0.54210   0.69266   0.77055   0.00000  Uiso   1.00
O1606  O     0.53720   0.69775   0.52997   0.00000  Uiso   1.00
O1607  O     0.53889   0.69660   0.85890   0.00000  Uiso   1.00
O1608  O     0.54454   0.63963   0.99138   0.00000  Uiso   1.00
O1609  O     0.53795   0.63730   0.65278   0.00000  Uiso   1.00
O1610  O     0.54071   0.63820   0.73914   0.00000  Uiso   1.00
O1611  O     0.71659   0.79212   0.52787   0.00000  Uiso   1.00
O1612  O     0.54068   0.69421   0.61590   0.00000  Uiso   1.00
O1613  O     0.71781   0.78627   0.77683   0.00000  Uiso   1.00
O1614  O     0.71410   0.79270   0.61459   0.00000  Uiso   1.00
O1615  O     0.71480   0.78959   0.86359   0.00000  Uiso   1.00
O1616  O     0.70678   0.86402   0.49348   0.00000  Uiso   1.00
O1617  O     0.53830   0.96907   0.15248   0.00000  Uiso   1.00
O1618  O     0.71067   0.86937   0.15724   0.00000  Uiso   1.00
O1619  O     0.54689   0.97632   0.23866   0.00000  Uiso   1.00
O1620  O     0.70700   0.86350   0.24326   0.00000  Uiso   1.00
O1621  O     0.53853   0.96633   0.40935   0.00000  Uiso   1.00
O1622  O     0.70758   0.86393   0.40726   0.00000  Uiso   1.00
O1623  O     0.53426   0.96906   0.49565   0.00000  Uiso   1.00
O1624  O     0.70846   0.80365   0.11505   0.00000  Uiso   1.00
O1625  O     0.70816   0.86410   0.98451   0.00000  Uiso   1.00
O1626  O     0.54027   0.96567   0.65284   0.00000  Uiso   1.00
O1627  O     0.71273   0.86884   0.65511   0.00000  Uiso   1.00
O1628  O     0.54106   0.96631   0.73907   0.00000  Uiso   1.00
O1629  O     0.71172   0.86085   0.74050   0.00000  Uiso   1.00
O1630  O     0.54171   0.96566   0.90091   0.00000  Uiso   1.00
O1631  O     0.71911   0.86986   0.89927   0.00000  Uiso   1.00
O1632  O     0.54123   0.96884   0.98754   0.00000  Uiso   1.00
O1633  O     0.96132   0.04027   0.35101   0.00000  Uiso   1.00
O1634  O     0.78595   0.13751   0.36437   0.00000  Uiso   1.00
O1635  O     0.78572   0.13951   0.27747   0.00000  Uiso   1.00
O1636  O     0.79131   0.14287   0.10936   0.00000  Uiso   1.00
O1637  O     0.95852   0.03594   0.26646   0.00000  Uiso   1.00
O1638  O     0.95590   0.03274   0.02065   0.00000  Uiso   1.00
O1639  O     0.78574   0.13442   0.02260   0.00000  Uiso   1.00
O1640  O     0.96000   0.03555   0.10654   0.00000  Uiso   1.00
O1641  O     0.79134   0.19483   0.15217   0.00000  Uiso   1.00
O1642  O     0.79136   0.19494   0.23883   0.00000  Uiso   1.00
O1643  O     0.78307   0.19946   0.39306   0.00000  Uiso   1.00
O1644  O     0.79017   0.19233   0.98381   0.00000  Uiso   1.00
O1645  O     0.96370   0.03852   0.77033   0.00000  Uiso   1.00
O1646  O     0.95435   0.02860   0.85575   0.00000  Uiso   1.00
O1647  O     0.78759   0.13897   0.86096   0.00000  Uiso   1.00
O1648  O     0.95993   0.03745   0.52852   0.00000  Uiso   1.00
O1649  O     0.79257   0.14150   0.52328   0.00000  Uiso   1.00
O1650  O     0.94874   0.02002   0.61007   0.00000  Uiso   1.00
O1651  O     0.78676   0.13650   0.61047   0.00000  Uiso   1.00
O1652  O     0.78863   0.13778   0.77424   0.00000  Uiso   1.00
O1653  O     0.78858   0.19652   0.89827   0.00000  Uiso   1.00
O1654  O     0.79191   0.19323   0.73506   0.00000  Uiso   1.00
O1655  O     0.95470   0.30088   0.40164   0.00000  Uiso   1.00
O1656  O     0.95594   0.37107   0.36474   0.00000  Uiso   1.00
O1657  O     0.96413   0.29312   0.23572   0.00000  Uiso   1.00
O1658  O     0.96053   0.29519   0.14947   0.00000  Uiso   1.00
O1659  O     0.95929   0.36178   0.02390   0.00000  Uiso   1.00
O1660  O     0.96299   0.37033   0.10988   0.00000  Uiso   1.00
O1661  O     0.95430   0.36738   0.27848   0.00000  Uiso   1.00
O1662  O     0.96033   0.29490   0.48659   0.00000  Uiso   1.00
O1663  O     0.78394   0.20045   0.48111   0.00000  Uiso   1.00
O1664  O     0.95983   0.29982   0.90176   0.00000  Uiso   1.00
O1665  O     0.96561   0.37553   0.77630   0.00000  Uiso   1.00
O1666  O     0.96789   0.37553   0.86511   0.00000  Uiso   1.00
O1667  O     0.95853   0.30363   0.74036   0.00000  Uiso   1.00
O1668  O     0.95636   0.30155   0.65288   0.00000  Uiso   1.00
O1669  O     0.95954   0.36566   0.52662   0.00000  Uiso   1.00
O1670  O     0.95967   0.37023   0.61199   0.00000  Uiso   1.00
O1671  O     0.96955   0.29054   0.98672   0.00000  Uiso   1.00
O1672  O     0.78580   0.20166   0.64934   0.00000  Uiso   1.00
O1673  O     0.78693   0.47111   0.36328   0.00000  Uiso   1.00
O1674  O     0.78717   0.52935   0.24522   0.00000  Uiso   1.00
O1675  O     0.79530   0.48119   0.02685   0.00000  Uiso   1.00
O1676  O     0.78520   0.46965   0.11169   0.00000  Uiso   1.00
O1677  O     0.78743   0.52876   0.40070   0.00000  Uiso   1.00
O1678  O     0.78816   0.53081   0.15685   0.00000  Uiso   1.00
O1679  O     0.78242   0.46910   0.27746   0.00000  Uiso   1.00
O1680  O     0.79038   0.52582   0.48581   0.00000  Uiso   1.00
O1681  O     0.79624   0.47536   0.86600   0.00000  Uiso   1.00
O1682  O     0.79025   0.47326   0.53330   0.00000  Uiso   1.00
O1683  O     0.78895   0.53043   0.74354   0.00000  Uiso   1.00
O1684  O     0.78751   0.47074   0.61949   0.00000  Uiso   1.00
O1685  O     0.79126   0.52766   0.90166   0.00000  Uiso   1.00
O1686  O     0.79217   0.47257   0.77892   0.00000  Uiso   1.00
O1687  O     0.79194   0.52988   0.65708   0.00000  Uiso   1.00
O1688  O     0.78643   0.53573   0.98731   0.00000  Uiso   1.00
O1689  O     0.96546   0.71071   0.11465   0.00000  Uiso   1.00
O1690  O     0.96893   0.71161   0.37387   0.00000  Uiso   1.00
O1691  O     0.95894   0.63575   0.14889   0.00000  Uiso   1.00
O1692  O     0.96141   0.70664   0.28690   0.00000  Uiso   1.00
O1693  O     0.96640   0.71208   0.02960   0.00000  Uiso   1.00
O1694  O     0.96281   0.62758   0.48865   0.00000  Uiso   1.00
O1695  O     0.95454   0.63466   0.23792   0.00000  Uiso   1.00
O1696  O     0.95799   0.63311   0.40348   0.00000  Uiso   1.00
O1697  O     0.95900   0.64008   0.98850   0.00000  Uiso   1.00
O1698  O     0.96777   0.70531   0.86452   0.00000  Uiso   1.00
O1699  O     0.95793   0.69360   0.78172   0.00000  Uiso   1.00
O1700  O     0.96972   0.70553   0.61904   0.00000  Uiso   1.00
O1701  O     0.96155   0.62627   0.74232   0.00000  Uiso   1.00
O1702  O     0.95463   0.63840   0.90276   0.00000  Uiso   1.00
O1703  O     0.96560   0.62585   0.65661   0.00000  Uiso   1.00
O1704  O     0.95719   0.69480   0.53687   0.00000  Uiso   1.00
O1705  O     0.79217   0.79464   0.77908   0.00000  Uiso   1.00
O1706  O     0.79314   0.80814   0.28143   0.00000  Uiso   1.00
O1707  O     0.95636   0.96602   0.39457   0.00000  Uiso   1.00
O1708  O     0.78748   0.86413   0.48914   0.00000  Uiso   1.00
O1709  O     0.78716   0.86300   0.23850   0.00000  Uiso   1.00
O1710  O     0.95819   0.96692   0.48096   0.00000  Uiso   1.00
O1711  O     0.95887   0.96401   0.23491   0.00000  Uiso   1.00
O1712  O     0.78291   0.86377   0.40416   0.00000  Uiso   1.00
O1713  O     0.79095   0.86082   0.15300   0.00000  Uiso   1.00
O1714  O     0.95926   0.96154   0.14593   0.00000  Uiso   1.00
O1715  O     0.79107   0.80598   0.36705   0.00000  Uiso   1.00
O1716  O     0.79278   0.80534   0.02364   0.00000  Uiso   1.00
O1717  O     0.78825   0.80046   0.10982   0.00000  Uiso   1.00
O1718  O     0.96363   0.95930   0.89702   0.00000  Uiso   1.00
O1719  O     0.78987   0.86338   0.98653   0.00000  Uiso   1.00
O1720  O     0.96255   0.95380   0.64920   0.00000  Uiso   1.00
O1721  O     0.79342   0.84941   0.73924   0.00000  Uiso   1.00
O1722  O     0.96636   0.95895   0.73762   0.00000  Uiso   1.00
O1723  O     0.79248   0.85806   0.90012   0.00000  Uiso   1.00
O1724  O     0.79286   0.85960   0.65449   0.00000  Uiso   1.00
O1725  O     0.96026   0.96153   0.98334   0.00000  Uiso   1.00
O1726  O     0.79214   0.80211   0.53245   0.00000  Uiso   1.00
O1727  O     0.79637   0.80662   0.86476   0.00000  Uiso   1.00
O1728  O     0.79423   0.80447   0.61857   0.00000  Uiso   1.00
O1729  O     0.23716   0.14030   0.44392   0.00000  Uiso   1.00
O1730  O     0.24464   0.19087   0.06490   0.00000  Uiso   1.00
O1731  O     0.23889   0.14527   0.18899   0.00000  Uiso   1.00
O1732  O     0.23999   0.18720   0.31739   0.00000  Uiso   1.00
O1733  O     0.24054   0.14165   0.68954   0.00000  Uiso   1.00
O1734  O     0.23682   0.18482   0.81428   0.00000  Uiso   1.00
O1735  O     0.24182   0.14104   0.94118   0.00000  Uiso   1.00
O1736  O     0.24282   0.19055   0.56533   0.00000  Uiso   1.00
O1737  O     0.24276   0.47430   0.45079   0.00000  Uiso   1.00
O1738  O     0.23057   0.51943   0.32562   0.00000  Uiso   1.00
O1739  O     0.23671   0.47684   0.19649   0.00000  Uiso   1.00
O1740  O     0.23763   0.52897   0.07515   0.00000  Uiso   1.00
O1741  O     0.24192   0.47446   0.70178   0.00000  Uiso   1.00
O1742  O     0.23483   0.52055   0.82391   0.00000  Uiso   1.00
O1743  O     0.24457   0.52317   0.57746   0.00000  Uiso   1.00
O1744  O     0.24410   0.47979   0.95137   0.00000  Uiso   1.00
O1745  O     0.23261   0.85849   0.31265   0.00000  Uiso   1.00
O1746  O     0.23401   0.85795   0.06258   0.00000  Uiso   1.00
O1747  O     0.23923   0.81431   0.18781   0.00000  Uiso   1.00
O1748  O     0.23753   0.81323   0.43813   0.00000  Uiso   1.00
O1749  O     0.23645   0.86072   0.56365   0.00000  Uiso   1.00
O1750  O     0.23699   0.85341   0.81750   0.00000  Uiso   1.00
O1751  O     0.23326   0.80698   0.94137   0.00000  Uiso   1.00
O1752  O     0.24216   0.81238   0.69106   0.00000  Uiso   1.00
O1753  O     0.48454   0.02082   0.44066   0.00000  Uiso   1.00
O1754  O     0.49068   0.02397   0.19231   0.00000  Uiso   1.00
O1755  O     0.48592   0.01871   0.94291   0.00000  Uiso   1.00
O1756  O     0.49641   0.02150   0.69468   0.00000  Uiso   1.00
O1757  O     0.48417   0.31329   0.32165   0.00000  Uiso   1.00
O1758  O     0.48903   0.35957   0.19797   0.00000  Uiso   1.00
O1759  O     0.48821   0.31497   0.07269   0.00000  Uiso   1.00
O1760  O     0.48303   0.35648   0.45281   0.00000  Uiso   1.00
O1761  O     0.48445   0.31731   0.82664   0.00000  Uiso   1.00
O1762  O     0.48774   0.36102   0.94913   0.00000  Uiso   1.00
O1763  O     0.48962   0.30790   0.57715   0.00000  Uiso   1.00
O1764  O     0.49443   0.35652   0.69894   0.00000  Uiso   1.00
O1765  O     0.48294   0.64649   0.32157   0.00000  Uiso   1.00
O1766  O     0.48560   0.64487   0.07540   0.00000  Uiso   1.00
O1767  O     0.48957   0.69186   0.44367   0.00000  Uiso   1.00
O1768  O     0.48494   0.69219   0.20050   0.00000  Uiso   1.00
O1769  O     0.48478   0.68810   0.69407   0.00000  Uiso   1.00
O1770  O     0.48792   0.64435   0.56935   0.00000  Uiso   1.00
O1771  O     0.49069   0.64373   0.81817   0.00000  Uiso   1.00
O1772  O     0.49181   0.68986   0.94915   0.00000  Uiso   1.00
O1773  O     0.49129   0.97355   0.31637   0.00000  Uiso   1.00
O1774  O     0.48780   0.97741   0.06751   0.00000  Uiso   1.00
O1775  O     0.48954   0.97226   0.81724   0.00000  Uiso   1.00
O1776  O     0.48731   0.97665   0.56804   0.00000  Uiso   1.00
O1777  O     0.73953   0.14569   0.19264   0.00000  Uiso   1.00
O1778  O     0.73805   0.14634   0.44205   0.00000  Uiso   1.00
O1779  O     0.73390   0.19193   0.31716   0.00000  Uiso   1.00
O1780  O     0.73834   0.18967   0.06894   0.00000  Uiso   1.00
O1781  O     0.74011   0.18947   0.57107   0.00000  Uiso   1.00
O1782  O     0.73740   0.14303   0.94086   0.00000  Uiso   1.00
O1783  O     0.73969   0.14391   0.69283   0.00000  Uiso   1.00
O1784  O     0.73678   0.19167   0.81549   0.00000  Uiso   1.00
O1785  O     0.73309   0.52092   0.32169   0.00000  Uiso   1.00
O1786  O     0.74008   0.47800   0.45027   0.00000  Uiso   1.00
O1787  O     0.73453   0.47559   0.19737   0.00000  Uiso   1.00
O1788  O     0.73358   0.52260   0.07293   0.00000  Uiso   1.00
O1789  O     0.73757   0.47879   0.69722   0.00000  Uiso   1.00
O1790  O     0.73751   0.48000   0.94992   0.00000  Uiso   1.00
O1791  O     0.73669   0.52444   0.82531   0.00000  Uiso   1.00
O1792  O     0.74254   0.52352   0.57345   0.00000  Uiso   1.00
O1793  O     0.73547   0.85383   0.32134   0.00000  Uiso   1.00
O1794  O     0.73960   0.85768   0.07002   0.00000  Uiso   1.00
O1795  O     0.73858   0.81146   0.19704   0.00000  Uiso   1.00
O1796  O     0.74074   0.80733   0.44584   0.00000  Uiso   1.00
O1797  O     0.73551   0.80880   0.94471   0.00000  Uiso   1.00
O1798  O     0.73660   0.84956   0.81687   0.00000  Uiso   1.00
O1799  O     0.73672   0.85420   0.57150   0.00000  Uiso   1.00
O1800  O     0.73728   0.80546   0.69467   0.00000  Uiso   1.00
O1801  O     0.98595   0.02543   0.18498   0.00000  Uiso   1.00
O1802  O     0.98592   0.02497   0.43795   0.00000  Uiso   1.00
O1803  O     0.98840   0.02312   0.93445   0.00000  Uiso   1.00
O1804  O     0.98521   0.01832   0.68743   0.00000  Uiso   1.00
O1805  O     0.98934   0.30884   0.07062   0.00000  Uiso   1.00
O1806  O     0.99198   0.35496   0.44774   0.00000  Uiso   1.00
O1807  O     0.97956   0.35383   0.19753   0.00000  Uiso   1.00
O1808  O     0.98500   0.30881   0.32105   0.00000  Uiso   1.00
O1809  O     0.99012   0.30992   0.57288   0.00000  Uiso   1.00
O1810  O     0.99016   0.36035   0.69445   0.00000  Uiso   1.00
O1811  O     0.98918   0.31364   0.81986   0.00000  Uiso   1.00
O1812  O     0.99286   0.35513   0.94879   0.00000  Uiso   1.00
O1813  O     0.98857   0.69853   0.19848   0.00000  Uiso   1.00
O1814  O     0.98013   0.64774   0.32522   0.00000  Uiso   1.00
O1815  O     0.99089   0.65151   0.07237   0.00000  Uiso   1.00
O1816  O     0.99092   0.68983   0.45254   0.00000  Uiso   1.00
O1817  O     0.99588   0.69256   0.94690   0.00000  Uiso   1.00
O1818  O     0.98947   0.68266   0.69995   0.00000  Uiso   1.00
O1819  O     0.98684   0.63959   0.57360   0.00000  Uiso   1.00
O1820  O     0.99170   0.64026   0.82468   0.00000  Uiso   1.00
O1821  O     0.98892   0.97781   0.31307   0.00000  Uiso   1.00
O1822  O     0.99062   0.97584   0.06274   0.00000  Uiso   1.00
O1823  O     0.98688   0.97205   0.56223   0.00000  Uiso   1.00
O1824  O     0.99114   0.97492   0.81277   0.00000  Uiso   1.00
