data_final_H-Ni-SABVOH01
_audit_creation_date              2022-12-15
_audit_creation_method            'Materials Studio'
_symmetry_space_group_name_H-M    'P1'
_symmetry_Int_Tables_number       1
_symmetry_cell_setting            triclinic
loop_
_symmetry_equiv_pos_as_xyz
  x,y,z
_cell_length_a                    33.4214
_cell_length_b                    36.1197
_cell_length_c                    25.8605
_cell_angle_alpha                 90.0000
_cell_angle_beta                  90.0000
_cell_angle_gamma                 90.0000
loop_
_atom_site_label
_atom_site_type_symbol
_atom_site_fract_x
_atom_site_fract_y
_atom_site_fract_z
_atom_site_U_iso_or_equiv
_atom_site_adp_type
_atom_site_occupancy
Ni1    Ni    0.00206   0.00136   0.12376   0.00000  Uiso   1.00
Ni2    Ni    0.24978   0.16726   0.49914   0.00000  Uiso   1.00
Ni3    Ni    0.00038   0.00008   0.49812   0.00000  Uiso   1.00
Ni4    Ni    0.24927   0.16552   0.87740   0.00000  Uiso   1.00
Ni5    Ni    0.00318   0.00035   0.99852   0.00000  Uiso   1.00
Ni6    Ni    0.00028   0.33397   0.12480   0.00000  Uiso   1.00
Ni7    Ni    0.00072   0.33294   0.00068   0.00000  Uiso   1.00
Ni8    Ni    0.24810   0.49942   0.00341   0.00000  Uiso   1.00
Ni9    Ni    0.24971   0.50085   0.25139   0.00000  Uiso   1.00
Ni10   Ni    0.24857   0.50204   0.37654   0.00000  Uiso   1.00
Ni11   Ni    0.24926   0.49934   0.12760   0.00000  Uiso   1.00
Ni12   Ni    0.24928   0.50084   0.75242   0.00000  Uiso   1.00
Ni13   Ni    0.24938   0.49922   0.87716   0.00000  Uiso   1.00
Ni14   Ni    0.24971   0.50298   0.62690   0.00000  Uiso   1.00
Ni15   Ni    0.24902   0.50137   0.50309   0.00000  Uiso   1.00
Ni16   Ni    0.00055   0.66612   0.87224   0.00000  Uiso   1.00
Ni17   Ni    0.00051   0.66709   0.74906   0.00000  Uiso   1.00
Ni18   Ni    0.24938   0.83483   0.25033   0.00000  Uiso   1.00
Ni19   Ni    0.24745   0.83432   0.49790   0.00000  Uiso   1.00
Ni20   Ni    0.24754   0.83629   0.37440   0.00000  Uiso   1.00
Ni21   Ni    0.24980   0.83102   0.74921   0.00000  Uiso   1.00
Ni22   Ni    0.24942   0.83500   0.99934   0.00000  Uiso   1.00
Ni23   Ni    0.24633   0.83157   0.62289   0.00000  Uiso   1.00
Ni24   Ni    0.00068   0.99956   0.74869   0.00000  Uiso   1.00
Ni25   Ni    0.00168   0.99986   0.87331   0.00000  Uiso   1.00
Ni26   Ni    0.00040   0.99960   0.62605   0.00000  Uiso   1.00
Ni27   Ni    0.25010   0.16710   0.00017   0.00000  Uiso   1.00
Ni28   Ni    0.25114   0.16629   0.25026   0.00000  Uiso   1.00
Ni29   Ni    0.49900   0.00046   0.25053   0.00000  Uiso   1.00
Ni30   Ni    0.25125   0.16759   0.12538   0.00000  Uiso   1.00
Ni31   Ni    0.25039   0.16845   0.37525   0.00000  Uiso   1.00
Ni32   Ni    0.49962   0.00021   0.37550   0.00000  Uiso   1.00
Ni33   Ni    0.25043   0.16702   0.75100   0.00000  Uiso   1.00
Ni34   Ni    0.25217   0.16710   0.62412   0.00000  Uiso   1.00
Ni35   Ni    0.49680   0.33235   0.25121   0.00000  Uiso   1.00
Ni36   Ni    0.49745   0.33430   0.12623   0.00000  Uiso   1.00
Ni37   Ni    0.49898   0.66826   0.49750   0.00000  Uiso   1.00
Ni38   Ni    0.49922   0.66609   0.62238   0.00000  Uiso   1.00
Ni39   Ni    0.25046   0.83389   0.12596   0.00000  Uiso   1.00
Ni40   Ni    0.25006   0.83270   0.87346   0.00000  Uiso   1.00
Ni41   Ni    0.74863   0.16517   0.49823   0.00000  Uiso   1.00
Ni42   Ni    0.74893   0.16757   0.25023   0.00000  Uiso   1.00
Ni43   Ni    0.74729   0.16678   0.37362   0.00000  Uiso   1.00
Ni44   Ni    0.50102   0.00076   0.12631   0.00000  Uiso   1.00
Ni45   Ni    0.50017   0.00048   0.50123   0.00000  Uiso   1.00
Ni46   Ni    0.74884   0.16610   0.62362   0.00000  Uiso   1.00
Ni47   Ni    0.50297   0.00091   0.87816   0.00000  Uiso   1.00
Ni48   Ni    0.50041   0.33553   0.00251   0.00000  Uiso   1.00
Ni49   Ni    0.50097   0.33285   0.37824   0.00000  Uiso   1.00
Ni50   Ni    0.50013   0.33396   0.75098   0.00000  Uiso   1.00
Ni51   Ni    0.50084   0.33431   0.87688   0.00000  Uiso   1.00
Ni52   Ni    0.50155   0.33456   0.62827   0.00000  Uiso   1.00
Ni53   Ni    0.50056   0.33329   0.50288   0.00000  Uiso   1.00
Ni54   Ni    0.74866   0.49578   0.12320   0.00000  Uiso   1.00
Ni55   Ni    0.74873   0.49569   0.24646   0.00000  Uiso   1.00
Ni56   Ni    0.74934   0.49804   0.99811   0.00000  Uiso   1.00
Ni57   Ni    0.50092   0.66817   0.12346   0.00000  Uiso   1.00
Ni58   Ni    0.50157   0.66681   0.24603   0.00000  Uiso   1.00
Ni59   Ni    0.50127   0.66829   0.37213   0.00000  Uiso   1.00
Ni60   Ni    0.50298   0.66889   0.99961   0.00000  Uiso   1.00
Ni61   Ni    0.50129   0.66619   0.87543   0.00000  Uiso   1.00
Ni62   Ni    0.50004   0.66739   0.74955   0.00000  Uiso   1.00
Ni63   Ni    0.74886   0.83732   0.25392   0.00000  Uiso   1.00
Ni64   Ni    0.50273   0.99941   0.00065   0.00000  Uiso   1.00
Ni65   Ni    0.50002   0.99850   0.62613   0.00000  Uiso   1.00
Ni66   Ni    0.50147   0.99899   0.75284   0.00000  Uiso   1.00
Ni67   Ni    0.75014   0.16603   0.00083   0.00000  Uiso   1.00
Ni68   Ni    0.75015   0.16679   0.12698   0.00000  Uiso   1.00
Ni69   Ni    0.99882   0.00141   0.24783   0.00000  Uiso   1.00
Ni70   Ni    0.75015   0.16717   0.74859   0.00000  Uiso   1.00
Ni71   Ni    0.75100   0.16663   0.87382   0.00000  Uiso   1.00
Ni72   Ni    0.99883   0.33156   0.37306   0.00000  Uiso   1.00
Ni73   Ni    0.99683   0.32922   0.49759   0.00000  Uiso   1.00
Ni74   Ni    0.99855   0.33271   0.24813   0.00000  Uiso   1.00
Ni75   Ni    0.99997   0.32906   0.74815   0.00000  Uiso   1.00
Ni76   Ni    0.99826   0.32908   0.62186   0.00000  Uiso   1.00
Ni77   Ni    0.99958   0.33114   0.87362   0.00000  Uiso   1.00
Ni78   Ni    0.75074   0.49939   0.49588   0.00000  Uiso   1.00
Ni79   Ni    0.75030   0.49689   0.37034   0.00000  Uiso   1.00
Ni80   Ni    0.75246   0.49740   0.74717   0.00000  Uiso   1.00
Ni81   Ni    0.75086   0.50082   0.62214   0.00000  Uiso   1.00
Ni82   Ni    0.75173   0.49821   0.87103   0.00000  Uiso   1.00
Ni83   Ni    0.99672   0.66777   0.12280   0.00000  Uiso   1.00
Ni84   Ni    0.99884   0.66770   0.24745   0.00000  Uiso   1.00
Ni85   Ni    0.99983   0.66662   0.37403   0.00000  Uiso   1.00
Ni86   Ni    0.99765   0.66721   0.49930   0.00000  Uiso   1.00
Ni87   Ni    0.99789   0.66583   0.62468   0.00000  Uiso   1.00
Ni88   Ni    0.99922   0.66665   0.99814   0.00000  Uiso   1.00
Ni89   Ni    0.75118   0.83680   0.12823   0.00000  Uiso   1.00
Ni90   Ni    0.75096   0.83542   0.37882   0.00000  Uiso   1.00
Ni91   Ni    0.75256   0.83630   0.00402   0.00000  Uiso   1.00
Ni92   Ni    0.99878   0.99978   0.37450   0.00000  Uiso   1.00
Ni93   Ni    0.75119   0.83320   0.75534   0.00000  Uiso   1.00
Ni94   Ni    0.75081   0.83400   0.50527   0.00000  Uiso   1.00
Ni95   Ni    0.75335   0.83385   0.87955   0.00000  Uiso   1.00
Ni96   Ni    0.75055   0.83406   0.62908   0.00000  Uiso   1.00
H97    H     0.16767   0.08728   0.48962   0.00000  Uiso   1.00
H98    H     0.10409   0.05264   0.23099   0.00000  Uiso   1.00
H99    H     0.08810   0.08182   0.14676   0.00000  Uiso   1.00
H100   H     0.17053   0.08134   0.23448   0.00000  Uiso   1.00
H101   H     0.14432   0.12052   0.14648   0.00000  Uiso   1.00
H102   H     0.10507   0.05171   0.48514   0.00000  Uiso   1.00
H103   H     0.08054   0.08698   0.38510   0.00000  Uiso   1.00
H104   H     0.14485   0.11597   0.39359   0.00000  Uiso   1.00
H105   H     0.22809   0.12784   0.43741   0.00000  Uiso   1.00
H106   H     0.01888   0.04278   0.43696   0.00000  Uiso   1.00
H107   H     0.02209   0.04086   0.18750   0.00000  Uiso   1.00
H108   H     0.09044   0.06939   0.72783   0.00000  Uiso   1.00
H109   H     0.08111   0.08461   0.64417   0.00000  Uiso   1.00
H110   H     0.16298   0.09246   0.73422   0.00000  Uiso   1.00
H111   H     0.14670   0.11946   0.64528   0.00000  Uiso   1.00
H112   H     0.08321   0.07856   0.89190   0.00000  Uiso   1.00
H113   H     0.10572   0.06188   0.98247   0.00000  Uiso   1.00
H114   H     0.14424   0.11210   0.89707   0.00000  Uiso   1.00
H115   H     0.16218   0.10273   0.98124   0.00000  Uiso   1.00
H116   H     0.23593   0.11965   0.93888   0.00000  Uiso   1.00
H117   H     0.22747   0.20835   0.31172   0.00000  Uiso   1.00
H118   H     0.01257   0.37907   0.19074   0.00000  Uiso   1.00
H119   H     0.11013   0.29047   0.11753   0.00000  Uiso   1.00
H120   H     0.17271   0.25463   0.11886   0.00000  Uiso   1.00
H121   H     0.10972   0.37970   0.23373   0.00000  Uiso   1.00
H122   H     0.17124   0.25193   0.36327   0.00000  Uiso   1.00
H123   H     0.07638   0.24492   0.26364   0.00000  Uiso   1.00
H124   H     0.10745   0.28718   0.36577   0.00000  Uiso   1.00
H125   H     0.15029   0.22567   0.02292   0.00000  Uiso   1.00
H126   H     0.02358   0.29127   0.06597   0.00000  Uiso   1.00
H127   H     0.09656   0.26651   0.02147   0.00000  Uiso   1.00
H128   H     0.23374   0.21237   0.06005   0.00000  Uiso   1.00
H129   H     0.13625   0.20925   0.26637   0.00000  Uiso   1.00
H130   H     0.09501   0.39296   0.47595   0.00000  Uiso   1.00
H131   H     0.16515   0.23960   0.60713   0.00000  Uiso   1.00
H132   H     0.15829   0.23513   0.85400   0.00000  Uiso   1.00
H133   H     0.10358   0.27143   0.60243   0.00000  Uiso   1.00
H134   H     0.07894   0.24297   0.51480   0.00000  Uiso   1.00
H135   H     0.02180   0.28907   0.81419   0.00000  Uiso   1.00
H136   H     0.08328   0.24882   0.76602   0.00000  Uiso   1.00
H137   H     0.10373   0.28081   0.85653   0.00000  Uiso   1.00
H138   H     0.11282   0.37504   0.73722   0.00000  Uiso   1.00
H139   H     0.14681   0.21874   0.77195   0.00000  Uiso   1.00
H140   H     0.13796   0.20815   0.51515   0.00000  Uiso   1.00
H141   H     0.24551   0.21615   0.81430   0.00000  Uiso   1.00
H142   H     0.23289   0.20964   0.55994   0.00000  Uiso   1.00
H143   H     0.01137   0.28476   0.56235   0.00000  Uiso   1.00
H144   H     0.13843   0.53985   0.11074   0.00000  Uiso   1.00
H145   H     0.17180   0.41577   0.23320   0.00000  Uiso   1.00
H146   H     0.16204   0.42686   0.47607   0.00000  Uiso   1.00
H147   H     0.13689   0.54530   0.35773   0.00000  Uiso   1.00
H148   H     0.14254   0.45262   0.38709   0.00000  Uiso   1.00
H149   H     0.16775   0.58596   0.26300   0.00000  Uiso   1.00
H150   H     0.07472   0.57431   0.11539   0.00000  Uiso   1.00
H151   H     0.07631   0.58189   0.35993   0.00000  Uiso   1.00
H152   H     0.15390   0.43072   0.14891   0.00000  Uiso   1.00
H153   H     0.16371   0.57864   0.01895   0.00000  Uiso   1.00
H154   H     0.08179   0.41617   0.38703   0.00000  Uiso   1.00
H155   H     0.22406   0.53736   0.06578   0.00000  Uiso   1.00
H156   H     0.08815   0.40032   0.14640   0.00000  Uiso   1.00
H157   H     0.13410   0.53196   0.63111   0.00000  Uiso   1.00
H158   H     0.07162   0.42799   0.87633   0.00000  Uiso   1.00
H159   H     0.13396   0.46082   0.88403   0.00000  Uiso   1.00
H160   H     0.14966   0.55499   0.85216   0.00000  Uiso   1.00
H161   H     0.17091   0.58983   0.50677   0.00000  Uiso   1.00
H162   H     0.07332   0.56938   0.62683   0.00000  Uiso   1.00
H163   H     0.15172   0.43547   0.64438   0.00000  Uiso   1.00
H164   H     0.17455   0.40798   0.73936   0.00000  Uiso   1.00
H165   H     0.08676   0.59305   0.85561   0.00000  Uiso   1.00
H166   H     0.15399   0.43733   0.98012   0.00000  Uiso   1.00
H167   H     0.09337   0.40132   0.97883   0.00000  Uiso   1.00
H168   H     0.08932   0.40027   0.64077   0.00000  Uiso   1.00
H169   H     0.16493   0.75391   0.39017   0.00000  Uiso   1.00
H170   H     0.07173   0.76090   0.24450   0.00000  Uiso   1.00
H171   H     0.11123   0.70956   0.14072   0.00000  Uiso   1.00
H172   H     0.10441   0.61813   0.26561   0.00000  Uiso   1.00
H173   H     0.08136   0.73976   0.47888   0.00000  Uiso   1.00
H174   H     0.10429   0.71491   0.38800   0.00000  Uiso   1.00
H175   H     0.23117   0.78865   0.19054   0.00000  Uiso   1.00
H176   H     0.17361   0.74755   0.13799   0.00000  Uiso   1.00
H177   H     0.13911   0.77989   0.47320   0.00000  Uiso   1.00
H178   H     0.10092   0.61349   0.02175   0.00000  Uiso   1.00
H179   H     0.01671   0.62314   0.30469   0.00000  Uiso   1.00
H180   H     0.13550   0.79179   0.23695   0.00000  Uiso   1.00
H181   H     0.22725   0.78695   0.68619   0.00000  Uiso   1.00
H182   H     0.07689   0.75251   0.73669   0.00000  Uiso   1.00
H183   H     0.10780   0.71560   0.63791   0.00000  Uiso   1.00
H184   H     0.02030   0.70980   0.68459   0.00000  Uiso   1.00
H185   H     0.01605   0.71123   0.93248   0.00000  Uiso   1.00
H186   H     0.17286   0.74385   0.88460   0.00000  Uiso   1.00
H187   H     0.11288   0.70949   0.88669   0.00000  Uiso   1.00
H188   H     0.17142   0.74922   0.63096   0.00000  Uiso   1.00
H189   H     0.13529   0.78870   0.73262   0.00000  Uiso   1.00
H190   H     0.01907   0.62590   0.55862   0.00000  Uiso   1.00
H191   H     0.08322   0.74690   0.98166   0.00000  Uiso   1.00
H192   H     0.23194   0.78990   0.93745   0.00000  Uiso   1.00
H193   H     0.02523   0.62501   0.80767   0.00000  Uiso   1.00
H194   H     0.10690   0.62119   0.51327   0.00000  Uiso   1.00
H195   H     0.14333   0.78643   0.98336   0.00000  Uiso   1.00
H196   H     0.11084   0.63087   0.76116   0.00000  Uiso   1.00
H197   H     0.17913   0.60218   0.75566   0.00000  Uiso   1.00
H198   H     0.09850   0.93464   0.01913   0.00000  Uiso   1.00
H199   H     0.13358   0.87554   0.11863   0.00000  Uiso   1.00
H200   H     0.07251   0.90774   0.12775   0.00000  Uiso   1.00
H201   H     0.17405   0.92171   0.26071   0.00000  Uiso   1.00
H202   H     0.15360   0.89638   0.35236   0.00000  Uiso   1.00
H203   H     0.11359   0.96049   0.26410   0.00000  Uiso   1.00
H204   H     0.09250   0.93634   0.35527   0.00000  Uiso   1.00
H205   H     0.16059   0.90526   0.02148   0.00000  Uiso   1.00
H206   H     0.22251   0.87800   0.31419   0.00000  Uiso   1.00
H207   H     0.15013   0.89772   0.59790   0.00000  Uiso   1.00
H208   H     0.08844   0.92872   0.60640   0.00000  Uiso   1.00
H209   H     0.09931   0.94130   0.51914   0.00000  Uiso   1.00
H210   H     0.17694   0.92198   0.75975   0.00000  Uiso   1.00
H211   H     0.15605   0.89721   0.85030   0.00000  Uiso   1.00
H212   H     0.11255   0.95086   0.76494   0.00000  Uiso   1.00
H213   H     0.09240   0.92755   0.85364   0.00000  Uiso   1.00
H214   H     0.16370   0.90980   0.51712   0.00000  Uiso   1.00
H215   H     0.01889   0.95630   0.80976   0.00000  Uiso   1.00
H216   H     0.02293   0.95720   0.56317   0.00000  Uiso   1.00
H217   H     0.22974   0.87830   0.56364   0.00000  Uiso   1.00
H218   H     0.33938   0.10057   0.14114   0.00000  Uiso   1.00
H219   H     0.35620   0.11722   0.22961   0.00000  Uiso   1.00
H220   H     0.39906   0.06128   0.14412   0.00000  Uiso   1.00
H221   H     0.41425   0.07507   0.23448   0.00000  Uiso   1.00
H222   H     0.48680   0.04679   0.18916   0.00000  Uiso   1.00
H223   H     0.33705   0.09809   0.39659   0.00000  Uiso   1.00
H224   H     0.39706   0.05650   0.39615   0.00000  Uiso   1.00
H225   H     0.35610   0.11214   0.47776   0.00000  Uiso   1.00
H226   H     0.27371   0.12671   0.18724   0.00000  Uiso   1.00
H227   H     0.41639   0.07148   0.47985   0.00000  Uiso   1.00
H228   H     0.34378   0.10201   0.64372   0.00000  Uiso   1.00
H229   H     0.35297   0.11078   0.73511   0.00000  Uiso   1.00
H230   H     0.40124   0.06432   0.64503   0.00000  Uiso   1.00
H231   H     0.41359   0.07691   0.73579   0.00000  Uiso   1.00
H232   H     0.33021   0.08058   0.89310   0.00000  Uiso   1.00
H233   H     0.39006   0.04677   0.89252   0.00000  Uiso   1.00
H234   H     0.35641   0.11773   0.98012   0.00000  Uiso   1.00
H235   H     0.48792   0.04426   0.68800   0.00000  Uiso   1.00
H236   H     0.42239   0.08966   0.98703   0.00000  Uiso   1.00
H237   H     0.26481   0.11988   0.68788   0.00000  Uiso   1.00
H238   H     0.40157   0.27310   0.10133   0.00000  Uiso   1.00
H239   H     0.33219   0.25047   0.01256   0.00000  Uiso   1.00
H240   H     0.39636   0.38573   0.23656   0.00000  Uiso   1.00
H241   H     0.42264   0.24748   0.36087   0.00000  Uiso   1.00
H242   H     0.40972   0.26009   0.26914   0.00000  Uiso   1.00
H243   H     0.36091   0.21256   0.36388   0.00000  Uiso   1.00
H244   H     0.38793   0.37715   0.49196   0.00000  Uiso   1.00
H245   H     0.39498   0.28550   0.01363   0.00000  Uiso   1.00
H246   H     0.34126   0.23869   0.10114   0.00000  Uiso   1.00
H247   H     0.47574   0.37384   0.43820   0.00000  Uiso   1.00
H248   H     0.34678   0.22624   0.26863   0.00000  Uiso   1.00
H249   H     0.49388   0.28597   0.06579   0.00000  Uiso   1.00
H250   H     0.48068   0.28610   0.31270   0.00000  Uiso   1.00
H251   H     0.39345   0.28880   0.60965   0.00000  Uiso   1.00
H252   H     0.36172   0.20675   0.86451   0.00000  Uiso   1.00
H253   H     0.39729   0.38907   0.73405   0.00000  Uiso   1.00
H254   H     0.34998   0.22471   0.76611   0.00000  Uiso   1.00
H255   H     0.42574   0.24224   0.86577   0.00000  Uiso   1.00
H256   H     0.41169   0.26163   0.77065   0.00000  Uiso   1.00
H257   H     0.47894   0.29163   0.81443   0.00000  Uiso   1.00
H258   H     0.38643   0.37532   0.98849   0.00000  Uiso   1.00
H259   H     0.33670   0.24943   0.60362   0.00000  Uiso   1.00
H260   H     0.39453   0.28632   0.51695   0.00000  Uiso   1.00
H261   H     0.32973   0.25711   0.51225   0.00000  Uiso   1.00
H262   H     0.36177   0.45837   0.13903   0.00000  Uiso   1.00
H263   H     0.35831   0.55461   0.02433   0.00000  Uiso   1.00
H264   H     0.42060   0.42101   0.13795   0.00000  Uiso   1.00
H265   H     0.25610   0.45176   0.43952   0.00000  Uiso   1.00
H266   H     0.35773   0.55097   0.26894   0.00000  Uiso   1.00
H267   H     0.42483   0.58105   0.26110   0.00000  Uiso   1.00
H268   H     0.41929   0.59094   0.01938   0.00000  Uiso   1.00
H269   H     0.35705   0.45335   0.39707   0.00000  Uiso   1.00
H270   H     0.27305   0.46056   0.18961   0.00000  Uiso   1.00
H271   H     0.32936   0.58743   0.35649   0.00000  Uiso   1.00
H272   H     0.33091   0.58501   0.11264   0.00000  Uiso   1.00
H273   H     0.41225   0.40934   0.39800   0.00000  Uiso   1.00
H274   H     0.33638   0.42186   0.23730   0.00000  Uiso   1.00
H275   H     0.27099   0.54179   0.31373   0.00000  Uiso   1.00
H276   H     0.32902   0.41506   0.49146   0.00000  Uiso   1.00
H277   H     0.36625   0.46238   0.64044   0.00000  Uiso   1.00
H278   H     0.42230   0.57849   0.50613   0.00000  Uiso   1.00
H279   H     0.42445   0.41815   0.89069   0.00000  Uiso   1.00
H280   H     0.35958   0.45472   0.89401   0.00000  Uiso   1.00
H281   H     0.33405   0.58338   0.61041   0.00000  Uiso   1.00
H282   H     0.41877   0.58221   0.76587   0.00000  Uiso   1.00
H283   H     0.35762   0.54277   0.76535   0.00000  Uiso   1.00
H284   H     0.33767   0.42859   0.73749   0.00000  Uiso   1.00
H285   H     0.27261   0.46052   0.94184   0.00000  Uiso   1.00
H286   H     0.27304   0.54567   0.56327   0.00000  Uiso   1.00
H287   H     0.32881   0.58250   0.86670   0.00000  Uiso   1.00
H288   H     0.35756   0.55198   0.51396   0.00000  Uiso   1.00
H289   H     0.32325   0.41060   0.99377   0.00000  Uiso   1.00
H290   H     0.27349   0.54353   0.81089   0.00000  Uiso   1.00
H291   H     0.26582   0.45760   0.68848   0.00000  Uiso   1.00
H292   H     0.42742   0.42989   0.63555   0.00000  Uiso   1.00
H293   H     0.39139   0.62115   0.35663   0.00000  Uiso   1.00
H294   H     0.39194   0.62043   0.10721   0.00000  Uiso   1.00
H295   H     0.42129   0.75431   0.13758   0.00000  Uiso   1.00
H296   H     0.38891   0.71062   0.23578   0.00000  Uiso   1.00
H297   H     0.47763   0.70913   0.18714   0.00000  Uiso   1.00
H298   H     0.41483   0.74936   0.38919   0.00000  Uiso   1.00
H299   H     0.48485   0.62441   0.06437   0.00000  Uiso   1.00
H300   H     0.32503   0.74483   0.23757   0.00000  Uiso   1.00
H301   H     0.38887   0.71552   0.47938   0.00000  Uiso   1.00
H302   H     0.35474   0.78226   0.13563   0.00000  Uiso   1.00
H303   H     0.32589   0.74591   0.48317   0.00000  Uiso   1.00
H304   H     0.35564   0.78946   0.38661   0.00000  Uiso   1.00
H305   H     0.48895   0.61934   0.30957   0.00000  Uiso   1.00
H306   H     0.26068   0.78770   0.43716   0.00000  Uiso   1.00
H307   H     0.38866   0.62110   0.86305   0.00000  Uiso   1.00
H308   H     0.33823   0.75695   0.73198   0.00000  Uiso   1.00
H309   H     0.41384   0.74716   0.63492   0.00000  Uiso   1.00
H310   H     0.39844   0.72041   0.73474   0.00000  Uiso   1.00
H311   H     0.39447   0.71955   0.97542   0.00000  Uiso   1.00
H312   H     0.35502   0.78301   0.63645   0.00000  Uiso   1.00
H313   H     0.41515   0.74054   0.89494   0.00000  Uiso   1.00
H314   H     0.48263   0.70984   0.68205   0.00000  Uiso   1.00
H315   H     0.33569   0.76100   0.97732   0.00000  Uiso   1.00
H316   H     0.35024   0.77598   0.89805   0.00000  Uiso   1.00
H317   H     0.39790   0.61271   0.60510   0.00000  Uiso   1.00
H318   H     0.47886   0.62481   0.81573   0.00000  Uiso   1.00
H319   H     0.48360   0.62166   0.55933   0.00000  Uiso   1.00
H320   H     0.33240   0.90843   0.01673   0.00000  Uiso   1.00
H321   H     0.42361   0.91293   0.11240   0.00000  Uiso   1.00
H322   H     0.47681   0.95869   0.31212   0.00000  Uiso   1.00
H323   H     0.36272   0.87273   0.11263   0.00000  Uiso   1.00
H324   H     0.40813   0.93259   0.35979   0.00000  Uiso   1.00
H325   H     0.39087   0.95291   0.26706   0.00000  Uiso   1.00
H326   H     0.34622   0.89503   0.35987   0.00000  Uiso   1.00
H327   H     0.33027   0.91507   0.26273   0.00000  Uiso   1.00
H328   H     0.39496   0.94695   0.02085   0.00000  Uiso   1.00
H329   H     0.26566   0.88112   0.06309   0.00000  Uiso   1.00
H330   H     0.49962   0.94988   0.05891   0.00000  Uiso   1.00
H331   H     0.39622   0.94550   0.52615   0.00000  Uiso   1.00
H332   H     0.49058   0.95154   0.81307   0.00000  Uiso   1.00
H333   H     0.41378   0.91763   0.61021   0.00000  Uiso   1.00
H334   H     0.26220   0.87956   0.80700   0.00000  Uiso   1.00
H335   H     0.35036   0.88485   0.60774   0.00000  Uiso   1.00
H336   H     0.40580   0.93623   0.85480   0.00000  Uiso   1.00
H337   H     0.38906   0.95223   0.76608   0.00000  Uiso   1.00
H338   H     0.34675   0.89573   0.85610   0.00000  Uiso   1.00
H339   H     0.33131   0.90889   0.76493   0.00000  Uiso   1.00
H340   H     0.33520   0.90881   0.52446   0.00000  Uiso   1.00
H341   H     0.48008   0.95482   0.55902   0.00000  Uiso   1.00
H342   H     0.64528   0.11013   0.48102   0.00000  Uiso   1.00
H343   H     0.52089   0.04441   0.43610   0.00000  Uiso   1.00
H344   H     0.61029   0.04813   0.22771   0.00000  Uiso   1.00
H345   H     0.59762   0.06755   0.14645   0.00000  Uiso   1.00
H346   H     0.67042   0.08264   0.23102   0.00000  Uiso   1.00
H347   H     0.65972   0.10294   0.14365   0.00000  Uiso   1.00
H348   H     0.58775   0.07884   0.38795   0.00000  Uiso   1.00
H349   H     0.58701   0.07187   0.48065   0.00000  Uiso   1.00
H350   H     0.64496   0.11931   0.39034   0.00000  Uiso   1.00
H351   H     0.66820   0.08540   0.98498   0.00000  Uiso   1.00
H352   H     0.57963   0.09116   0.73638   0.00000  Uiso   1.00
H353   H     0.60856   0.04769   0.64299   0.00000  Uiso   1.00
H354   H     0.64520   0.12190   0.73509   0.00000  Uiso   1.00
H355   H     0.66999   0.08117   0.64028   0.00000  Uiso   1.00
H356   H     0.60966   0.04443   0.88753   0.00000  Uiso   1.00
H357   H     0.67222   0.08271   0.88999   0.00000  Uiso   1.00
H358   H     0.59684   0.06228   0.98165   0.00000  Uiso   1.00
H359   H     0.52247   0.04455   0.94329   0.00000  Uiso   1.00
H360   H     0.73188   0.12267   0.68907   0.00000  Uiso   1.00
H361   H     0.60654   0.38590   0.14663   0.00000  Uiso   1.00
H362   H     0.66663   0.25200   0.25947   0.00000  Uiso   1.00
H363   H     0.56963   0.23928   0.11710   0.00000  Uiso   1.00
H364   H     0.63340   0.20759   0.36244   0.00000  Uiso   1.00
H365   H     0.59997   0.27155   0.02665   0.00000  Uiso   1.00
H366   H     0.63673   0.20735   0.11241   0.00000  Uiso   1.00
H367   H     0.60927   0.29289   0.25997   0.00000  Uiso   1.00
H368   H     0.58002   0.25053   0.36327   0.00000  Uiso   1.00
H369   H     0.66428   0.23628   0.02561   0.00000  Uiso   1.00
H370   H     0.73409   0.21221   0.06816   0.00000  Uiso   1.00
H371   H     0.60096   0.38747   0.39547   0.00000  Uiso   1.00
H372   H     0.51210   0.38010   0.19056   0.00000  Uiso   1.00
H373   H     0.73309   0.21219   0.31254   0.00000  Uiso   1.00
H374   H     0.58985   0.39972   0.22842   0.00000  Uiso   1.00
H375   H     0.73875   0.21467   0.81195   0.00000  Uiso   1.00
H376   H     0.52328   0.37855   0.68818   0.00000  Uiso   1.00
H377   H     0.60181   0.27644   0.52107   0.00000  Uiso   1.00
H378   H     0.58966   0.26848   0.60855   0.00000  Uiso   1.00
H379   H     0.52362   0.29196   0.56909   0.00000  Uiso   1.00
H380   H     0.66199   0.23403   0.77112   0.00000  Uiso   1.00
H381   H     0.59201   0.26365   0.77258   0.00000  Uiso   1.00
H382   H     0.58045   0.25296   0.86082   0.00000  Uiso   1.00
H383   H     0.50718   0.38358   0.94125   0.00000  Uiso   1.00
H384   H     0.65619   0.24132   0.60364   0.00000  Uiso   1.00
H385   H     0.64365   0.22164   0.85853   0.00000  Uiso   1.00
H386   H     0.60905   0.38279   0.64086   0.00000  Uiso   1.00
H387   H     0.60255   0.39642   0.89822   0.00000  Uiso   1.00
H388   H     0.66565   0.24076   0.51974   0.00000  Uiso   1.00
H389   H     0.73212   0.21007   0.56344   0.00000  Uiso   1.00
H390   H     0.64233   0.54885   0.10602   0.00000  Uiso   1.00
H391   H     0.66352   0.42088   0.39297   0.00000  Uiso   1.00
H392   H     0.57852   0.41443   0.48034   0.00000  Uiso   1.00
H393   H     0.64333   0.44835   0.47680   0.00000  Uiso   1.00
H394   H     0.65134   0.43016   0.22761   0.00000  Uiso   1.00
H395   H     0.73454   0.44894   0.18819   0.00000  Uiso   1.00
H396   H     0.57940   0.58412   0.10570   0.00000  Uiso   1.00
H397   H     0.63776   0.54941   0.35462   0.00000  Uiso   1.00
H398   H     0.57819   0.58734   0.36014   0.00000  Uiso   1.00
H399   H     0.67044   0.57834   0.26382   0.00000  Uiso   1.00
H400   H     0.67540   0.58538   0.00759   0.00000  Uiso   1.00
H401   H     0.66660   0.42140   0.14285   0.00000  Uiso   1.00
H402   H     0.64076   0.45110   0.98425   0.00000  Uiso   1.00
H403   H     0.67242   0.41562   0.63149   0.00000  Uiso   1.00
H404   H     0.63515   0.54355   0.60423   0.00000  Uiso   1.00
H405   H     0.73540   0.54276   0.81039   0.00000  Uiso   1.00
H406   H     0.73383   0.54688   0.56131   0.00000  Uiso   1.00
H407   H     0.64799   0.43574   0.72246   0.00000  Uiso   1.00
H408   H     0.58376   0.59109   0.85692   0.00000  Uiso   1.00
H409   H     0.57517   0.57920   0.61477   0.00000  Uiso   1.00
H410   H     0.63928   0.55171   0.85469   0.00000  Uiso   1.00
H411   H     0.66212   0.42906   0.89102   0.00000  Uiso   1.00
H412   H     0.66270   0.57019   0.76911   0.00000  Uiso   1.00
H413   H     0.57764   0.42129   0.99067   0.00000  Uiso   1.00
H414   H     0.73351   0.45422   0.68513   0.00000  Uiso   1.00
H415   H     0.67308   0.58692   0.50538   0.00000  Uiso   1.00
H416   H     0.58766   0.40324   0.73505   0.00000  Uiso   1.00
H417   H     0.66700   0.75406   0.38740   0.00000  Uiso   1.00
H418   H     0.58584   0.74702   0.23192   0.00000  Uiso   1.00
H419   H     0.61032   0.71571   0.13917   0.00000  Uiso   1.00
H420   H     0.67104   0.75079   0.13877   0.00000  Uiso   1.00
H421   H     0.59630   0.72992   0.47908   0.00000  Uiso   1.00
H422   H     0.61055   0.71042   0.38649   0.00000  Uiso   1.00
H423   H     0.72942   0.79596   0.43900   0.00000  Uiso   1.00
H424   H     0.61085   0.61334   0.26721   0.00000  Uiso   1.00
H425   H     0.64674   0.78269   0.23203   0.00000  Uiso   1.00
H426   H     0.60950   0.61870   0.01351   0.00000  Uiso   1.00
H427   H     0.65784   0.76479   0.48051   0.00000  Uiso   1.00
H428   H     0.51745   0.71385   0.43404   0.00000  Uiso   1.00
H429   H     0.61043   0.61940   0.51189   0.00000  Uiso   1.00
H430   H     0.58614   0.74897   0.73576   0.00000  Uiso   1.00
H431   H     0.58889   0.73646   0.64720   0.00000  Uiso   1.00
H432   H     0.60793   0.71398   0.89070   0.00000  Uiso   1.00
H433   H     0.66797   0.75410   0.89271   0.00000  Uiso   1.00
H434   H     0.65604   0.76852   0.64597   0.00000  Uiso   1.00
H435   H     0.60916   0.60853   0.76907   0.00000  Uiso   1.00
H436   H     0.52736   0.70838   0.93521   0.00000  Uiso   1.00
H437   H     0.73034   0.79576   0.94579   0.00000  Uiso   1.00
H438   H     0.64517   0.78894   0.73916   0.00000  Uiso   1.00
H439   H     0.57487   0.76202   0.99257   0.00000  Uiso   1.00
H440   H     0.63536   0.79951   0.98979   0.00000  Uiso   1.00
H441   H     0.58265   0.91173   0.01784   0.00000  Uiso   1.00
H442   H     0.65063   0.89826   0.10197   0.00000  Uiso   1.00
H443   H     0.59553   0.93535   0.10218   0.00000  Uiso   1.00
H444   H     0.66107   0.90876   0.26673   0.00000  Uiso   1.00
H445   H     0.66697   0.91482   0.35887   0.00000  Uiso   1.00
H446   H     0.59760   0.94210   0.27178   0.00000  Uiso   1.00
H447   H     0.60317   0.94499   0.35729   0.00000  Uiso   1.00
H448   H     0.64742   0.88351   0.02030   0.00000  Uiso   1.00
H449   H     0.74148   0.88408   0.06728   0.00000  Uiso   1.00
H450   H     0.72559   0.87791   0.31576   0.00000  Uiso   1.00
H451   H     0.64493   0.88170   0.61176   0.00000  Uiso   1.00
H452   H     0.58774   0.92070   0.61223   0.00000  Uiso   1.00
H453   H     0.58628   0.92063   0.51821   0.00000  Uiso   1.00
H454   H     0.66637   0.91403   0.77176   0.00000  Uiso   1.00
H455   H     0.67077   0.91620   0.86083   0.00000  Uiso   1.00
H456   H     0.60174   0.94418   0.77118   0.00000  Uiso   1.00
H457   H     0.60720   0.94957   0.86361   0.00000  Uiso   1.00
H458   H     0.65377   0.89785   0.52299   0.00000  Uiso   1.00
H459   H     0.72689   0.87532   0.57010   0.00000  Uiso   1.00
H460   H     0.87474   0.14114   0.11722   0.00000  Uiso   1.00
H461   H     0.83131   0.08692   0.23477   0.00000  Uiso   1.00
H462   H     0.93275   0.10575   0.12098   0.00000  Uiso   1.00
H463   H     0.89037   0.04983   0.23034   0.00000  Uiso   1.00
H464   H     0.85362   0.10915   0.39539   0.00000  Uiso   1.00
H465   H     0.91267   0.07451   0.39055   0.00000  Uiso   1.00
H466   H     0.77292   0.12881   0.19014   0.00000  Uiso   1.00
H467   H     0.76290   0.12037   0.43399   0.00000  Uiso   1.00
H468   H     0.83522   0.08625   0.48339   0.00000  Uiso   1.00
H469   H     0.89312   0.04940   0.48176   0.00000  Uiso   1.00
H470   H     0.82132   0.06675   0.00727   0.00000  Uiso   1.00
H471   H     0.86885   0.19585   0.49491   0.00000  Uiso   1.00
H472   H     0.85710   0.11458   0.64313   0.00000  Uiso   1.00
H473   H     0.84049   0.09641   0.72927   0.00000  Uiso   1.00
H474   H     0.91680   0.07389   0.63869   0.00000  Uiso   1.00
H475   H     0.89883   0.05539   0.72711   0.00000  Uiso   1.00
H476   H     0.84578   0.10185   0.89670   0.00000  Uiso   1.00
H477   H     0.90831   0.06578   0.89487   0.00000  Uiso   1.00
H478   H     0.97765   0.04065   0.68980   0.00000  Uiso   1.00
H479   H     0.88359   0.03353   0.99753   0.00000  Uiso   1.00
H480   H     0.77039   0.12208   0.93609   0.00000  Uiso   1.00
H481   H     0.99608   0.04943   0.93474   0.00000  Uiso   1.00
H482   H     0.90788   0.26465   0.10592   0.00000  Uiso   1.00
H483   H     0.98368   0.28641   0.31228   0.00000  Uiso   1.00
H484   H     0.82033   0.26227   0.37192   0.00000  Uiso   1.00
H485   H     0.87887   0.30045   0.37415   0.00000  Uiso   1.00
H486   H     0.91189   0.26004   0.27149   0.00000  Uiso   1.00
H487   H     0.84486   0.22878   0.27339   0.00000  Uiso   1.00
H488   H     0.88810   0.37246   0.23324   0.00000  Uiso   1.00
H489   H     0.84368   0.22840   0.10582   0.00000  Uiso   1.00
H490   H     0.84153   0.23128   0.01648   0.00000  Uiso   1.00
H491   H     0.90102   0.27164   0.02029   0.00000  Uiso   1.00
H492   H     0.90824   0.39782   0.48138   0.00000  Uiso   1.00
H493   H     0.98319   0.37706   0.43511   0.00000  Uiso   1.00
H494   H     0.90172   0.39169   0.14539   0.00000  Uiso   1.00
H495   H     0.93097   0.23228   0.49635   0.00000  Uiso   1.00
H496   H     0.91438   0.25190   0.60895   0.00000  Uiso   1.00
H497   H     0.97516   0.37217   0.93502   0.00000  Uiso   1.00
H498   H     0.91162   0.25936   0.85452   0.00000  Uiso   1.00
H499   H     0.88235   0.29007   0.76362   0.00000  Uiso   1.00
H500   H     0.89577   0.38195   0.89362   0.00000  Uiso   1.00
H501   H     0.84880   0.22566   0.85310   0.00000  Uiso   1.00
H502   H     0.97599   0.36862   0.68648   0.00000  Uiso   1.00
H503   H     0.82097   0.26028   0.75752   0.00000  Uiso   1.00
H504   H     0.85195   0.21382   0.61109   0.00000  Uiso   1.00
H505   H     0.90417   0.39697   0.97640   0.00000  Uiso   1.00
H506   H     0.91326   0.39973   0.73155   0.00000  Uiso   1.00
H507   H     0.75485   0.44841   0.43472   0.00000  Uiso   1.00
H508   H     0.82722   0.58198   0.10903   0.00000  Uiso   1.00
H509   H     0.91939   0.41590   0.38596   0.00000  Uiso   1.00
H510   H     0.85980   0.44827   0.38821   0.00000  Uiso   1.00
H511   H     0.83190   0.57834   0.35816   0.00000  Uiso   1.00
H512   H     0.84170   0.42547   0.14863   0.00000  Uiso   1.00
H513   H     0.85276   0.55158   0.26729   0.00000  Uiso   1.00
H514   H     0.82418   0.40346   0.24113   0.00000  Uiso   1.00
H515   H     0.85517   0.54766   0.01426   0.00000  Uiso   1.00
H516   H     0.76559   0.54230   0.06128   0.00000  Uiso   1.00
H517   H     0.76813   0.54205   0.30808   0.00000  Uiso   1.00
H518   H     0.91524   0.58686   0.26516   0.00000  Uiso   1.00
H519   H     0.84512   0.42735   0.47559   0.00000  Uiso   1.00
H520   H     0.91929   0.58696   0.01129   0.00000  Uiso   1.00
H521   H     0.83161   0.57522   0.85199   0.00000  Uiso   1.00
H522   H     0.84309   0.43388   0.64453   0.00000  Uiso   1.00
H523   H     0.85488   0.43972   0.72892   0.00000  Uiso   1.00
H524   H     0.76724   0.44932   0.93582   0.00000  Uiso   1.00
H525   H     0.83771   0.57041   0.60586   0.00000  Uiso   1.00
H526   H     0.83430   0.41371   0.89471   0.00000  Uiso   1.00
H527   H     0.85791   0.55184   0.77065   0.00000  Uiso   1.00
H528   H     0.91317   0.58941   0.76909   0.00000  Uiso   1.00
H529   H     0.84249   0.43459   0.98205   0.00000  Uiso   1.00
H530   H     0.86459   0.53954   0.51386   0.00000  Uiso   1.00
H531   H     0.92866   0.57041   0.50515   0.00000  Uiso   1.00
H532   H     0.91125   0.40476   0.64655   0.00000  Uiso   1.00
H533   H     0.89349   0.61441   0.35702   0.00000  Uiso   1.00
H534   H     0.90071   0.72909   0.48002   0.00000  Uiso   1.00
H535   H     0.85954   0.79132   0.14197   0.00000  Uiso   1.00
H536   H     0.91757   0.74554   0.14154   0.00000  Uiso   1.00
H537   H     0.89328   0.72075   0.23277   0.00000  Uiso   1.00
H538   H     0.92479   0.75079   0.38407   0.00000  Uiso   1.00
H539   H     0.97417   0.70655   0.18423   0.00000  Uiso   1.00
H540   H     0.83313   0.75511   0.23304   0.00000  Uiso   1.00
H541   H     0.85787   0.77915   0.39675   0.00000  Uiso   1.00
H542   H     0.97843   0.62203   0.06486   0.00000  Uiso   1.00
H543   H     0.83847   0.76604   0.48411   0.00000  Uiso   1.00
H544   H     0.76594   0.78969   0.19032   0.00000  Uiso   1.00
H545   H     0.88705   0.62105   0.10786   0.00000  Uiso   1.00
H546   H     0.97578   0.70747   0.43800   0.00000  Uiso   1.00
H547   H     0.77163   0.79024   0.69491   0.00000  Uiso   1.00
H548   H     0.89762   0.60844   0.60493   0.00000  Uiso   1.00
H549   H     0.90424   0.60335   0.85263   0.00000  Uiso   1.00
H550   H     0.90544   0.72880   0.64810   0.00000  Uiso   1.00
H551   H     0.89035   0.71566   0.73104   0.00000  Uiso   1.00
H552   H     0.85621   0.78155   0.89440   0.00000  Uiso   1.00
H553   H     0.82872   0.75327   0.73741   0.00000  Uiso   1.00
H554   H     0.92234   0.74665   0.88948   0.00000  Uiso   1.00
H555   H     0.88181   0.70547   0.98945   0.00000  Uiso   1.00
H556   H     0.84567   0.76544   0.65191   0.00000  Uiso   1.00
H557   H     0.82488   0.74440   0.99255   0.00000  Uiso   1.00
H558   H     0.85280   0.88998   0.02316   0.00000  Uiso   1.00
H559   H     0.89221   0.94725   0.10386   0.00000  Uiso   1.00
H560   H     0.82503   0.92429   0.11693   0.00000  Uiso   1.00
H561   H     0.89696   0.94406   0.35667   0.00000  Uiso   1.00
H562   H     0.92409   0.92014   0.25799   0.00000  Uiso   1.00
H563   H     0.83467   0.91195   0.36422   0.00000  Uiso   1.00
H564   H     0.85896   0.88321   0.26856   0.00000  Uiso   1.00
H565   H     0.97474   0.96025   0.30854   0.00000  Uiso   1.00
H566   H     0.98712   0.95362   0.06290   0.00000  Uiso   1.00
H567   H     0.91419   0.92956   0.02097   0.00000  Uiso   1.00
H568   H     0.92027   0.92312   0.52335   0.00000  Uiso   1.00
H569   H     0.88918   0.95265   0.61262   0.00000  Uiso   1.00
H570   H     0.83077   0.91604   0.61594   0.00000  Uiso   1.00
H571   H     0.89828   0.94370   0.85603   0.00000  Uiso   1.00
H572   H     0.92651   0.90477   0.76464   0.00000  Uiso   1.00
H573   H     0.84225   0.90580   0.85639   0.00000  Uiso   1.00
H574   H     0.86582   0.87053   0.76455   0.00000  Uiso   1.00
H575   H     0.85722   0.88798   0.52637   0.00000  Uiso   1.00
H576   H     0.77576   0.87396   0.81697   0.00000  Uiso   1.00
C577   C     0.10928   0.07790   0.01728   0.00000  Uiso   1.00
C578   C     0.10124   0.08625   0.10916   0.00000  Uiso   1.00
C579   C     0.14482   0.09886   0.01771   0.00000  Uiso   1.00
C580   C     0.13616   0.10780   0.10944   0.00000  Uiso   1.00
C581   C     0.05714   0.04217   0.06162   0.00000  Uiso   1.00
C582   C     0.08919   0.06907   0.06192   0.00000  Uiso   1.00
C583   C     0.19635   0.13019   0.06510   0.00000  Uiso   1.00
C584   C     0.15844   0.11332   0.06329   0.00000  Uiso   1.00
C585   C     0.11296   0.06539   0.26599   0.00000  Uiso   1.00
C586   C     0.10046   0.08429   0.35411   0.00000  Uiso   1.00
C587   C     0.14944   0.08565   0.26728   0.00000  Uiso   1.00
C588   C     0.13698   0.10229   0.35641   0.00000  Uiso   1.00
C589   C     0.04973   0.04166   0.31277   0.00000  Uiso   1.00
C590   C     0.08731   0.06472   0.31000   0.00000  Uiso   1.00
C591   C     0.19817   0.12554   0.31572   0.00000  Uiso   1.00
C592   C     0.16187   0.10471   0.31353   0.00000  Uiso   1.00
C593   C     0.11324   0.06554   0.52243   0.00000  Uiso   1.00
C594   C     0.09952   0.08577   0.61152   0.00000  Uiso   1.00
C595   C     0.14950   0.08598   0.52212   0.00000  Uiso   1.00
C596   C     0.13650   0.10541   0.61132   0.00000  Uiso   1.00
C597   C     0.05164   0.04234   0.56640   0.00000  Uiso   1.00
C598   C     0.08843   0.06504   0.56730   0.00000  Uiso   1.00
C599   C     0.19898   0.12620   0.56772   0.00000  Uiso   1.00
C600   C     0.16235   0.10376   0.56694   0.00000  Uiso   1.00
C601   C     0.10656   0.07552   0.76453   0.00000  Uiso   1.00
C602   C     0.09897   0.08327   0.85589   0.00000  Uiso   1.00
C603   C     0.14426   0.09150   0.76718   0.00000  Uiso   1.00
C604   C     0.13432   0.10217   0.85782   0.00000  Uiso   1.00
C605   C     0.05114   0.04378   0.81171   0.00000  Uiso   1.00
C606   C     0.08491   0.07029   0.81096   0.00000  Uiso   1.00
C607   C     0.19627   0.12639   0.81395   0.00000  Uiso   1.00
C608   C     0.15757   0.10675   0.81403   0.00000  Uiso   1.00
C609   C     0.05174   0.28825   0.43568   0.00000  Uiso   1.00
C610   C     0.19744   0.20610   0.19193   0.00000  Uiso   1.00
C611   C     0.05333   0.37389   0.30696   0.00000  Uiso   1.00
C612   C     0.13259   0.22772   0.23450   0.00000  Uiso   1.00
C613   C     0.15250   0.25315   0.15056   0.00000  Uiso   1.00
C614   C     0.09934   0.25127   0.23420   0.00000  Uiso   1.00
C615   C     0.11678   0.27367   0.15228   0.00000  Uiso   1.00
C616   C     0.08767   0.26507   0.43599   0.00000  Uiso   1.00
C617   C     0.16140   0.22853   0.19227   0.00000  Uiso   1.00
C618   C     0.05375   0.29535   0.18820   0.00000  Uiso   1.00
C619   C     0.09127   0.27448   0.19329   0.00000  Uiso   1.00
C620   C     0.05280   0.37382   0.05843   0.00000  Uiso   1.00
C621   C     0.13159   0.22454   0.47909   0.00000  Uiso   1.00
C622   C     0.15161   0.24955   0.39477   0.00000  Uiso   1.00
C623   C     0.09725   0.24451   0.47989   0.00000  Uiso   1.00
C624   C     0.11450   0.26834   0.39668   0.00000  Uiso   1.00
C625   C     0.15847   0.22612   0.43597   0.00000  Uiso   1.00
C626   C     0.19716   0.20689   0.44017   0.00000  Uiso   1.00
C627   C     0.08900   0.39776   0.30665   0.00000  Uiso   1.00
C628   C     0.11605   0.39724   0.26637   0.00000  Uiso   1.00
C629   C     0.08710   0.39907   0.06052   0.00000  Uiso   1.00
C630   C     0.09194   0.27476   0.93535   0.00000  Uiso   1.00
C631   C     0.19644   0.20442   0.94077   0.00000  Uiso   1.00
C632   C     0.08769   0.39745   0.80922   0.00000  Uiso   1.00
C633   C     0.13797   0.23013   0.73336   0.00000  Uiso   1.00
C634   C     0.14894   0.24189   0.64136   0.00000  Uiso   1.00
C635   C     0.10138   0.24886   0.73042   0.00000  Uiso   1.00
C636   C     0.11341   0.26159   0.64037   0.00000  Uiso   1.00
C637   C     0.05189   0.37366   0.80538   0.00000  Uiso   1.00
C638   C     0.16154   0.22650   0.68708   0.00000  Uiso   1.00
C639   C     0.05169   0.28894   0.68298   0.00000  Uiso   1.00
C640   C     0.09029   0.26725   0.68487   0.00000  Uiso   1.00
C641   C     0.05211   0.37032   0.55465   0.00000  Uiso   1.00
C642   C     0.11517   0.39401   0.76684   0.00000  Uiso   1.00
C643   C     0.14039   0.23682   0.98459   0.00000  Uiso   1.00
C644   C     0.14505   0.24081   0.89084   0.00000  Uiso   1.00
C645   C     0.10733   0.26013   0.98279   0.00000  Uiso   1.00
C646   C     0.11278   0.26659   0.89067   0.00000  Uiso   1.00
C647   C     0.16198   0.22902   0.93823   0.00000  Uiso   1.00
C648   C     0.05666   0.29822   0.93376   0.00000  Uiso   1.00
C649   C     0.19869   0.20672   0.68842   0.00000  Uiso   1.00
C650   C     0.08845   0.39505   0.55629   0.00000  Uiso   1.00
C651   C     0.09744   0.58331   0.39202   0.00000  Uiso   1.00
C652   C     0.10360   0.40847   0.10860   0.00000  Uiso   1.00
C653   C     0.15016   0.58623   0.47527   0.00000  Uiso   1.00
C654   C     0.14899   0.58515   0.22933   0.00000  Uiso   1.00
C655   C     0.15163   0.41645   0.26852   0.00000  Uiso   1.00
C656   C     0.10519   0.40831   0.01530   0.00000  Uiso   1.00
C657   C     0.13263   0.55853   0.14412   0.00000  Uiso   1.00
C658   C     0.13500   0.43782   0.35357   0.00000  Uiso   1.00
C659   C     0.16155   0.43550   0.31255   0.00000  Uiso   1.00
C660   C     0.14071   0.42641   0.11131   0.00000  Uiso   1.00
C661   C     0.19661   0.54054   0.18759   0.00000  Uiso   1.00
C662   C     0.15761   0.55951   0.18991   0.00000  Uiso   1.00
C663   C     0.19419   0.46034   0.06350   0.00000  Uiso   1.00
C664   C     0.15912   0.43816   0.06283   0.00000  Uiso   1.00
C665   C     0.13104   0.56176   0.39072   0.00000  Uiso   1.00
C666   C     0.10003   0.41795   0.35299   0.00000  Uiso   1.00
C667   C     0.19464   0.54038   0.43453   0.00000  Uiso   1.00
C668   C     0.15858   0.56426   0.43288   0.00000  Uiso   1.00
C669   C     0.19637   0.46138   0.31090   0.00000  Uiso   1.00
C670   C     0.14098   0.42921   0.01674   0.00000  Uiso   1.00
C671   C     0.09605   0.57809   0.14591   0.00000  Uiso   1.00
C672   C     0.14564   0.57923   0.98377   0.00000  Uiso   1.00
C673   C     0.15280   0.41024   0.77220   0.00000  Uiso   1.00
C674   C     0.14493   0.42214   0.51198   0.00000  Uiso   1.00
C675   C     0.12895   0.55500   0.65707   0.00000  Uiso   1.00
C676   C     0.10823   0.40308   0.51192   0.00000  Uiso   1.00
C677   C     0.14108   0.42785   0.60568   0.00000  Uiso   1.00
C678   C     0.11047   0.59995   0.98434   0.00000  Uiso   1.00
C679   C     0.09579   0.57668   0.65389   0.00000  Uiso   1.00
C680   C     0.19558   0.54021   0.68959   0.00000  Uiso   1.00
C681   C     0.15919   0.56350   0.69226   0.00000  Uiso   1.00
C682   C     0.19787   0.45940   0.56185   0.00000  Uiso   1.00
C683   C     0.16111   0.43477   0.55895   0.00000  Uiso   1.00
C684   C     0.10437   0.40738   0.60360   0.00000  Uiso   1.00
C685   C     0.13772   0.56717   0.88983   0.00000  Uiso   1.00
C686   C     0.15476   0.59250   0.72814   0.00000  Uiso   1.00
C687   C     0.16042   0.43532   0.81351   0.00000  Uiso   1.00
C688   C     0.10169   0.58712   0.89166   0.00000  Uiso   1.00
C689   C     0.13046   0.44116   0.85254   0.00000  Uiso   1.00
C690   C     0.19628   0.53988   0.93451   0.00000  Uiso   1.00
C691   C     0.16091   0.56256   0.93654   0.00000  Uiso   1.00
C692   C     0.19604   0.45887   0.81252   0.00000  Uiso   1.00
C693   C     0.09571   0.42199   0.85020   0.00000  Uiso   1.00
C694   C     0.08816   0.60549   0.43684   0.00000  Uiso   1.00
C695   C     0.11520   0.60681   0.47865   0.00000  Uiso   1.00
C696   C     0.05008   0.62687   0.18729   0.00000  Uiso   1.00
C697   C     0.10213   0.74572   0.01663   0.00000  Uiso   1.00
C698   C     0.11705   0.72855   0.10818   0.00000  Uiso   1.00
C699   C     0.13758   0.76813   0.01737   0.00000  Uiso   1.00
C700   C     0.15375   0.74767   0.10536   0.00000  Uiso   1.00
C701   C     0.05259   0.70557   0.06395   0.00000  Uiso   1.00
C702   C     0.09065   0.72688   0.06306   0.00000  Uiso   1.00
C703   C     0.16205   0.76990   0.05964   0.00000  Uiso   1.00
C704   C     0.05151   0.62649   0.43824   0.00000  Uiso   1.00
C705   C     0.09423   0.75664   0.27352   0.00000  Uiso   1.00
C706   C     0.11276   0.73160   0.35552   0.00000  Uiso   1.00
C707   C     0.13052   0.77576   0.27173   0.00000  Uiso   1.00
C708   C     0.14984   0.75072   0.35401   0.00000  Uiso   1.00
C709   C     0.05067   0.70981   0.31589   0.00000  Uiso   1.00
C710   C     0.08569   0.73404   0.31520   0.00000  Uiso   1.00
C711   C     0.19768   0.79436   0.05806   0.00000  Uiso   1.00
C712   C     0.15697   0.77575   0.31297   0.00000  Uiso   1.00
C713   C     0.19258   0.79896   0.31007   0.00000  Uiso   1.00
C714   C     0.11274   0.60390   0.23039   0.00000  Uiso   1.00
C715   C     0.08544   0.60126   0.18855   0.00000  Uiso   1.00
C716   C     0.19542   0.79188   0.80974   0.00000  Uiso   1.00
C717   C     0.05304   0.62678   0.68922   0.00000  Uiso   1.00
C718   C     0.10041   0.74321   0.51215   0.00000  Uiso   1.00
C719   C     0.11357   0.72946   0.60344   0.00000  Uiso   1.00
C720   C     0.13397   0.76525   0.50984   0.00000  Uiso   1.00
C721   C     0.14961   0.74804   0.60027   0.00000  Uiso   1.00
C722   C     0.05251   0.70445   0.56314   0.00000  Uiso   1.00
C723   C     0.08934   0.72633   0.56007   0.00000  Uiso   1.00
C724   C     0.08768   0.60252   0.93821   0.00000  Uiso   1.00
C725   C     0.15904   0.76820   0.55404   0.00000  Uiso   1.00
C726   C     0.05213   0.62593   0.93889   0.00000  Uiso   1.00
C727   C     0.09572   0.75261   0.76989   0.00000  Uiso   1.00
C728   C     0.11844   0.72523   0.85282   0.00000  Uiso   1.00
C729   C     0.13072   0.77265   0.76817   0.00000  Uiso   1.00
C730   C     0.15143   0.74708   0.85300   0.00000  Uiso   1.00
C731   C     0.05212   0.70792   0.81480   0.00000  Uiso   1.00
C732   C     0.08889   0.72992   0.81319   0.00000  Uiso   1.00
C733   C     0.11812   0.61300   0.72763   0.00000  Uiso   1.00
C734   C     0.15828   0.77026   0.81106   0.00000  Uiso   1.00
C735   C     0.19333   0.79380   0.55463   0.00000  Uiso   1.00
C736   C     0.08956   0.60579   0.68833   0.00000  Uiso   1.00
C737   C     0.15381   0.92286   0.22882   0.00000  Uiso   1.00
C738   C     0.13362   0.89650   0.14612   0.00000  Uiso   1.00
C739   C     0.12045   0.94456   0.23008   0.00000  Uiso   1.00
C740   C     0.09776   0.91748   0.15069   0.00000  Uiso   1.00
C741   C     0.19798   0.87671   0.18751   0.00000  Uiso   1.00
C742   C     0.16148   0.89918   0.18616   0.00000  Uiso   1.00
C743   C     0.05624   0.96402   0.19201   0.00000  Uiso   1.00
C744   C     0.09200   0.94320   0.19001   0.00000  Uiso   1.00
C745   C     0.15025   0.91739   0.48173   0.00000  Uiso   1.00
C746   C     0.14187   0.90884   0.38904   0.00000  Uiso   1.00
C747   C     0.11244   0.93395   0.48125   0.00000  Uiso   1.00
C748   C     0.10694   0.92880   0.39031   0.00000  Uiso   1.00
C749   C     0.19713   0.87812   0.43359   0.00000  Uiso   1.00
C750   C     0.16296   0.90305   0.43588   0.00000  Uiso   1.00
C751   C     0.05409   0.96295   0.43841   0.00000  Uiso   1.00
C752   C     0.09159   0.94200   0.43681   0.00000  Uiso   1.00
C753   C     0.15681   0.92197   0.72598   0.00000  Uiso   1.00
C754   C     0.14249   0.90677   0.63661   0.00000  Uiso   1.00
C755   C     0.12008   0.93986   0.72918   0.00000  Uiso   1.00
C756   C     0.10750   0.92667   0.63862   0.00000  Uiso   1.00
C757   C     0.19989   0.87688   0.68358   0.00000  Uiso   1.00
C758   C     0.16749   0.90212   0.68007   0.00000  Uiso   1.00
C759   C     0.05607   0.96289   0.68879   0.00000  Uiso   1.00
C760   C     0.09464   0.94253   0.68613   0.00000  Uiso   1.00
C761   C     0.14832   0.91151   0.98259   0.00000  Uiso   1.00
C762   C     0.14371   0.90604   0.88780   0.00000  Uiso   1.00
C763   C     0.11138   0.92839   0.98257   0.00000  Uiso   1.00
C764   C     0.10738   0.92192   0.88926   0.00000  Uiso   1.00
C765   C     0.20153   0.87888   0.93283   0.00000  Uiso   1.00
C766   C     0.16561   0.90113   0.93446   0.00000  Uiso   1.00
C767   C     0.05613   0.95828   0.93727   0.00000  Uiso   1.00
C768   C     0.09185   0.93525   0.93615   0.00000  Uiso   1.00
C769   C     0.35570   0.09135   0.10571   0.00000  Uiso   1.00
C770   C     0.36531   0.10341   0.01509   0.00000  Uiso   1.00
C771   C     0.39121   0.07224   0.10851   0.00000  Uiso   1.00
C772   C     0.40438   0.08729   0.02042   0.00000  Uiso   1.00
C773   C     0.30368   0.12521   0.05941   0.00000  Uiso   1.00
C774   C     0.34273   0.10626   0.05973   0.00000  Uiso   1.00
C775   C     0.44884   0.04119   0.06387   0.00000  Uiso   1.00
C776   C     0.41415   0.06707   0.06345   0.00000  Uiso   1.00
C777   C     0.35481   0.09235   0.35964   0.00000  Uiso   1.00
C778   C     0.36433   0.10412   0.26649   0.00000  Uiso   1.00
C779   C     0.38864   0.06928   0.36095   0.00000  Uiso   1.00
C780   C     0.39914   0.08198   0.26970   0.00000  Uiso   1.00
C781   C     0.30606   0.13070   0.31155   0.00000  Uiso   1.00
C782   C     0.34175   0.10748   0.31189   0.00000  Uiso   1.00
C783   C     0.44704   0.04172   0.31653   0.00000  Uiso   1.00
C784   C     0.40949   0.06170   0.31509   0.00000  Uiso   1.00
C785   C     0.35704   0.09375   0.60695   0.00000  Uiso   1.00
C786   C     0.36573   0.10101   0.51456   0.00000  Uiso   1.00
C787   C     0.39406   0.07501   0.60796   0.00000  Uiso   1.00
C788   C     0.40044   0.08047   0.51552   0.00000  Uiso   1.00
C789   C     0.30682   0.13037   0.55999   0.00000  Uiso   1.00
C790   C     0.34467   0.10961   0.56027   0.00000  Uiso   1.00
C791   C     0.45115   0.04326   0.56587   0.00000  Uiso   1.00
C792   C     0.41627   0.06876   0.56264   0.00000  Uiso   1.00
C793   C     0.34551   0.07865   0.85772   0.00000  Uiso   1.00
C794   C     0.36034   0.09545   0.76842   0.00000  Uiso   1.00
C795   C     0.38248   0.06216   0.85856   0.00000  Uiso   1.00
C796   C     0.39553   0.07619   0.76893   0.00000  Uiso   1.00
C797   C     0.30219   0.12343   0.81361   0.00000  Uiso   1.00
C798   C     0.33645   0.09812   0.81243   0.00000  Uiso   1.00
C799   C     0.44836   0.04137   0.81685   0.00000  Uiso   1.00
C800   C     0.40738   0.05865   0.81384   0.00000  Uiso   1.00
C801   C     0.39088   0.26280   0.13926   0.00000  Uiso   1.00
C802   C     0.39446   0.25597   0.23176   0.00000  Uiso   1.00
C803   C     0.35570   0.24190   0.13926   0.00000  Uiso   1.00
C804   C     0.36044   0.23446   0.23186   0.00000  Uiso   1.00
C805   C     0.44437   0.29456   0.18543   0.00000  Uiso   1.00
C806   C     0.41047   0.26947   0.18488   0.00000  Uiso   1.00
C807   C     0.33884   0.22864   0.18684   0.00000  Uiso   1.00
C808   C     0.44334   0.37283   0.06226   0.00000  Uiso   1.00
C809   C     0.40299   0.24967   0.39613   0.00000  Uiso   1.00
C810   C     0.38969   0.26929   0.48471   0.00000  Uiso   1.00
C811   C     0.36682   0.23036   0.39549   0.00000  Uiso   1.00
C812   C     0.35140   0.25299   0.48254   0.00000  Uiso   1.00
C813   C     0.44872   0.29236   0.43787   0.00000  Uiso   1.00
C814   C     0.41534   0.26842   0.44178   0.00000  Uiso   1.00
C815   C     0.34093   0.23237   0.43795   0.00000  Uiso   1.00
C816   C     0.44522   0.37273   0.31379   0.00000  Uiso   1.00
C817   C     0.30224   0.21021   0.43535   0.00000  Uiso   1.00
C818   C     0.30193   0.20641   0.18611   0.00000  Uiso   1.00
C819   C     0.40832   0.39471   0.31827   0.00000  Uiso   1.00
C820   C     0.38156   0.39365   0.02173   0.00000  Uiso   1.00
C821   C     0.40707   0.39636   0.06253   0.00000  Uiso   1.00
C822   C     0.30399   0.20797   0.68541   0.00000  Uiso   1.00
C823   C     0.38378   0.27514   0.64324   0.00000  Uiso   1.00
C824   C     0.39519   0.25941   0.73440   0.00000  Uiso   1.00
C825   C     0.35189   0.25132   0.63935   0.00000  Uiso   1.00
C826   C     0.36011   0.23811   0.73080   0.00000  Uiso   1.00
C827   C     0.44531   0.29897   0.68724   0.00000  Uiso   1.00
C828   C     0.40669   0.27882   0.69012   0.00000  Uiso   1.00
C829   C     0.33773   0.23401   0.68489   0.00000  Uiso   1.00
C830   C     0.44992   0.37598   0.56115   0.00000  Uiso   1.00
C831   C     0.40424   0.24654   0.89634   0.00000  Uiso   1.00
C832   C     0.38617   0.27011   0.97975   0.00000  Uiso   1.00
C833   C     0.36810   0.22594   0.89541   0.00000  Uiso   1.00
C834   C     0.34922   0.25223   0.97821   0.00000  Uiso   1.00
C835   C     0.44608   0.29536   0.93787   0.00000  Uiso   1.00
C836   C     0.41325   0.26973   0.93889   0.00000  Uiso   1.00
C837   C     0.30349   0.20664   0.93449   0.00000  Uiso   1.00
C838   C     0.34001   0.22997   0.93618   0.00000  Uiso   1.00
C839   C     0.44888   0.37746   0.81013   0.00000  Uiso   1.00
C840   C     0.38314   0.39628   0.52433   0.00000  Uiso   1.00
C841   C     0.41430   0.39971   0.56314   0.00000  Uiso   1.00
C842   C     0.33893   0.56590   0.43688   0.00000  Uiso   1.00
C843   C     0.34091   0.44124   0.31694   0.00000  Uiso   1.00
C844   C     0.30218   0.46245   0.31810   0.00000  Uiso   1.00
C845   C     0.39678   0.41325   0.36399   0.00000  Uiso   1.00
C846   C     0.35272   0.42099   0.27358   0.00000  Uiso   1.00
C847   C     0.36680   0.56621   0.47975   0.00000  Uiso   1.00
C848   C     0.36492   0.44012   0.10821   0.00000  Uiso   1.00
C849   C     0.39932   0.41985   0.10647   0.00000  Uiso   1.00
C850   C     0.40438   0.58036   0.47392   0.00000  Uiso   1.00
C851   C     0.34563   0.41272   0.02369   0.00000  Uiso   1.00
C852   C     0.30287   0.54214   0.44022   0.00000  Uiso   1.00
C853   C     0.36580   0.56468   0.23265   0.00000  Uiso   1.00
C854   C     0.30129   0.45856   0.06726   0.00000  Uiso   1.00
C855   C     0.33740   0.43686   0.06629   0.00000  Uiso   1.00
C856   C     0.30308   0.54180   0.19084   0.00000  Uiso   1.00
C857   C     0.33977   0.56331   0.18920   0.00000  Uiso   1.00
C858   C     0.36546   0.43767   0.36178   0.00000  Uiso   1.00
C859   C     0.35127   0.58421   0.14502   0.00000  Uiso   1.00
C860   C     0.34931   0.58385   0.38990   0.00000  Uiso   1.00
C861   C     0.40274   0.58334   0.23034   0.00000  Uiso   1.00
C862   C     0.38744   0.40017   0.27250   0.00000  Uiso   1.00
C863   C     0.34904   0.41755   0.52402   0.00000  Uiso   1.00
C864   C     0.38956   0.40440   0.76887   0.00000  Uiso   1.00
C865   C     0.30317   0.53905   0.94218   0.00000  Uiso   1.00
C866   C     0.33958   0.56449   0.94429   0.00000  Uiso   1.00
C867   C     0.37151   0.44394   0.60644   0.00000  Uiso   1.00
C868   C     0.36567   0.56757   0.98865   0.00000  Uiso   1.00
C869   C     0.40334   0.42089   0.85815   0.00000  Uiso   1.00
C870   C     0.35056   0.58187   0.64495   0.00000  Uiso   1.00
C871   C     0.40155   0.58774   0.98600   0.00000  Uiso   1.00
C872   C     0.35516   0.42611   0.76891   0.00000  Uiso   1.00
C873   C     0.36552   0.56186   0.73283   0.00000  Uiso   1.00
C874   C     0.30365   0.46032   0.56907   0.00000  Uiso   1.00
C875   C     0.34146   0.43984   0.56719   0.00000  Uiso   1.00
C876   C     0.30442   0.53841   0.69115   0.00000  Uiso   1.00
C877   C     0.33919   0.56210   0.68915   0.00000  Uiso   1.00
C878   C     0.36726   0.44098   0.85994   0.00000  Uiso   1.00
C879   C     0.34303   0.44122   0.81515   0.00000  Uiso   1.00
C880   C     0.40712   0.42504   0.60370   0.00000  Uiso   1.00
C881   C     0.30451   0.46103   0.81692   0.00000  Uiso   1.00
C882   C     0.34983   0.58441   0.90114   0.00000  Uiso   1.00
C883   C     0.40021   0.58107   0.72975   0.00000  Uiso   1.00
C884   C     0.41401   0.40201   0.81225   0.00000  Uiso   1.00
C885   C     0.41144   0.60598   0.18584   0.00000  Uiso   1.00
C886   C     0.30377   0.79477   0.06273   0.00000  Uiso   1.00
C887   C     0.41362   0.60077   0.42997   0.00000  Uiso   1.00
C888   C     0.29971   0.79540   0.31496   0.00000  Uiso   1.00
C889   C     0.44949   0.62628   0.18128   0.00000  Uiso   1.00
C890   C     0.36636   0.77215   0.10145   0.00000  Uiso   1.00
C891   C     0.35411   0.75730   0.01147   0.00000  Uiso   1.00
C892   C     0.40217   0.75238   0.10119   0.00000  Uiso   1.00
C893   C     0.38912   0.73631   0.01100   0.00000  Uiso   1.00
C894   C     0.34064   0.77328   0.05638   0.00000  Uiso   1.00
C895   C     0.45016   0.71012   0.05577   0.00000  Uiso   1.00
C896   C     0.41361   0.73411   0.05614   0.00000  Uiso   1.00
C897   C     0.44889   0.62526   0.42913   0.00000  Uiso   1.00
C898   C     0.36068   0.76937   0.35502   0.00000  Uiso   1.00
C899   C     0.34456   0.74767   0.27078   0.00000  Uiso   1.00
C900   C     0.39675   0.74786   0.35468   0.00000  Uiso   1.00
C901   C     0.38123   0.72819   0.26834   0.00000  Uiso   1.00
C902   C     0.33607   0.77112   0.31228   0.00000  Uiso   1.00
C903   C     0.44427   0.70417   0.30696   0.00000  Uiso   1.00
C904   C     0.40783   0.72766   0.31007   0.00000  Uiso   1.00
C905   C     0.38595   0.60267   0.38842   0.00000  Uiso   1.00
C906   C     0.38488   0.60462   0.14200   0.00000  Uiso   1.00
C907   C     0.41178   0.60568   0.93903   0.00000  Uiso   1.00
C908   C     0.38590   0.60141   0.64225   0.00000  Uiso   1.00
C909   C     0.44778   0.62498   0.68467   0.00000  Uiso   1.00
C910   C     0.36018   0.76780   0.60200   0.00000  Uiso   1.00
C911   C     0.34232   0.74400   0.51820   0.00000  Uiso   1.00
C912   C     0.39659   0.74827   0.60071   0.00000  Uiso   1.00
C913   C     0.37848   0.72547   0.51647   0.00000  Uiso   1.00
C914   C     0.33335   0.76671   0.56098   0.00000  Uiso   1.00
C915   C     0.44414   0.70606   0.55830   0.00000  Uiso   1.00
C916   C     0.40629   0.72705   0.55739   0.00000  Uiso   1.00
C917   C     0.44890   0.62915   0.93614   0.00000  Uiso   1.00
C918   C     0.41185   0.60194   0.68664   0.00000  Uiso   1.00
C919   C     0.36133   0.76328   0.86161   0.00000  Uiso   1.00
C920   C     0.35412   0.75257   0.76826   0.00000  Uiso   1.00
C921   C     0.39590   0.74196   0.86092   0.00000  Uiso   1.00
C922   C     0.38837   0.73199   0.76823   0.00000  Uiso   1.00
C923   C     0.33947   0.76787   0.81596   0.00000  Uiso   1.00
C924   C     0.44732   0.70583   0.81033   0.00000  Uiso   1.00
C925   C     0.40982   0.72666   0.81369   0.00000  Uiso   1.00
C926   C     0.30182   0.78924   0.81520   0.00000  Uiso   1.00
C927   C     0.29740   0.79034   0.56230   0.00000  Uiso   1.00
C928   C     0.38509   0.60504   0.89831   0.00000  Uiso   1.00
C929   C     0.40239   0.91406   0.14436   0.00000  Uiso   1.00
C930   C     0.38538   0.93683   0.23037   0.00000  Uiso   1.00
C931   C     0.36725   0.89292   0.14365   0.00000  Uiso   1.00
C932   C     0.34998   0.91348   0.22965   0.00000  Uiso   1.00
C933   C     0.44514   0.96185   0.18830   0.00000  Uiso   1.00
C934   C     0.41123   0.93651   0.18628   0.00000  Uiso   1.00
C935   C     0.30544   0.87170   0.18959   0.00000  Uiso   1.00
C936   C     0.34101   0.89438   0.18591   0.00000  Uiso   1.00
C937   C     0.39098   0.92657   0.39705   0.00000  Uiso   1.00
C938   C     0.38524   0.93474   0.49028   0.00000  Uiso   1.00
C939   C     0.35769   0.90474   0.39583   0.00000  Uiso   1.00
C940   C     0.35143   0.91321   0.48836   0.00000  Uiso   1.00
C941   C     0.44330   0.96391   0.44256   0.00000  Uiso   1.00
C942   C     0.40581   0.94370   0.44317   0.00000  Uiso   1.00
C943   C     0.30027   0.87552   0.43964   0.00000  Uiso   1.00
C944   C     0.33582   0.90065   0.44124   0.00000  Uiso   1.00
C945   C     0.39670   0.91552   0.64675   0.00000  Uiso   1.00
C946   C     0.38330   0.93467   0.73312   0.00000  Uiso   1.00
C947   C     0.36025   0.89749   0.64369   0.00000  Uiso   1.00
C948   C     0.35002   0.91126   0.73181   0.00000  Uiso   1.00
C949   C     0.44379   0.95864   0.69093   0.00000  Uiso   1.00
C950   C     0.40879   0.93450   0.69101   0.00000  Uiso   1.00
C951   C     0.30287   0.86987   0.68965   0.00000  Uiso   1.00
C952   C     0.33786   0.89372   0.68751   0.00000  Uiso   1.00
C953   C     0.39421   0.92716   0.89105   0.00000  Uiso   1.00
C954   C     0.38690   0.93561   0.98515   0.00000  Uiso   1.00
C955   C     0.35976   0.90591   0.89110   0.00000  Uiso   1.00
C956   C     0.35235   0.91334   0.98346   0.00000  Uiso   1.00
C957   C     0.44562   0.96584   0.94075   0.00000  Uiso   1.00
C958   C     0.40755   0.94365   0.93844   0.00000  Uiso   1.00
C959   C     0.30358   0.87392   0.93776   0.00000  Uiso   1.00
C960   C     0.33977   0.89706   0.93714   0.00000  Uiso   1.00
C961   C     0.61241   0.06601   0.01602   0.00000  Uiso   1.00
C962   C     0.60978   0.07404   0.10835   0.00000  Uiso   1.00
C963   C     0.64949   0.08269   0.01789   0.00000  Uiso   1.00
C964   C     0.64545   0.09411   0.10807   0.00000  Uiso   1.00
C965   C     0.55606   0.03945   0.06249   0.00000  Uiso   1.00
C966   C     0.59351   0.06064   0.06430   0.00000  Uiso   1.00
C967   C     0.69955   0.12386   0.06167   0.00000  Uiso   1.00
C968   C     0.66417   0.09924   0.06247   0.00000  Uiso   1.00
C969   C     0.61670   0.06226   0.26514   0.00000  Uiso   1.00
C970   C     0.60308   0.07964   0.35236   0.00000  Uiso   1.00
C971   C     0.65191   0.08107   0.26601   0.00000  Uiso   1.00
C972   C     0.63708   0.10351   0.35387   0.00000  Uiso   1.00
C973   C     0.55457   0.03781   0.30935   0.00000  Uiso   1.00
C974   C     0.59257   0.05910   0.30987   0.00000  Uiso   1.00
C975   C     0.69621   0.12526   0.30958   0.00000  Uiso   1.00
C976   C     0.66153   0.10230   0.31173   0.00000  Uiso   1.00
C977   C     0.60538   0.07473   0.51562   0.00000  Uiso   1.00
C978   C     0.61720   0.06036   0.60691   0.00000  Uiso   1.00
C979   C     0.64049   0.09507   0.51711   0.00000  Uiso   1.00
C980   C     0.65279   0.08172   0.60599   0.00000  Uiso   1.00
C981   C     0.55702   0.03408   0.56091   0.00000  Uiso   1.00
C982   C     0.59348   0.05608   0.56328   0.00000  Uiso   1.00
C983   C     0.69862   0.12225   0.55918   0.00000  Uiso   1.00
C984   C     0.66488   0.09799   0.55988   0.00000  Uiso   1.00
C985   C     0.60073   0.08526   0.76996   0.00000  Uiso   1.00
C986   C     0.61590   0.06465   0.85681   0.00000  Uiso   1.00
C987   C     0.63714   0.10300   0.76761   0.00000  Uiso   1.00
C988   C     0.65270   0.08285   0.85506   0.00000  Uiso   1.00
C989   C     0.55338   0.04166   0.81108   0.00000  Uiso   1.00
C990   C     0.59010   0.06484   0.81254   0.00000  Uiso   1.00
C991   C     0.69876   0.12422   0.81039   0.00000  Uiso   1.00
C992   C     0.66406   0.10240   0.81077   0.00000  Uiso   1.00
C993   C     0.55174   0.37051   0.31654   0.00000  Uiso   1.00
C994   C     0.58866   0.39816   0.06645   0.00000  Uiso   1.00
C995   C     0.61606   0.39728   0.11014   0.00000  Uiso   1.00
C996   C     0.69538   0.20703   0.18433   0.00000  Uiso   1.00
C997   C     0.69318   0.20531   0.43370   0.00000  Uiso   1.00
C998   C     0.64771   0.24985   0.22695   0.00000  Uiso   1.00
C999   C     0.62899   0.22380   0.14682   0.00000  Uiso   1.00
C1000  C     0.61437   0.27249   0.22754   0.00000  Uiso   1.00
C1001  C     0.59346   0.24406   0.14877   0.00000  Uiso   1.00
C1002  C     0.65730   0.22754   0.18605   0.00000  Uiso   1.00
C1003  C     0.55195   0.29348   0.18907   0.00000  Uiso   1.00
C1004  C     0.58638   0.26901   0.18728   0.00000  Uiso   1.00
C1005  C     0.55110   0.37606   0.06973   0.00000  Uiso   1.00
C1006  C     0.64573   0.24324   0.48470   0.00000  Uiso   1.00
C1007  C     0.62828   0.22311   0.39776   0.00000  Uiso   1.00
C1008  C     0.61017   0.26262   0.48763   0.00000  Uiso   1.00
C1009  C     0.59636   0.24847   0.39866   0.00000  Uiso   1.00
C1010  C     0.58567   0.26707   0.44421   0.00000  Uiso   1.00
C1011  C     0.65494   0.22527   0.43742   0.00000  Uiso   1.00
C1012  C     0.55163   0.29233   0.44429   0.00000  Uiso   1.00
C1013  C     0.58999   0.39144   0.31458   0.00000  Uiso   1.00
C1014  C     0.61291   0.39694   0.35752   0.00000  Uiso   1.00
C1015  C     0.58936   0.39741   0.81528   0.00000  Uiso   1.00
C1016  C     0.69694   0.20688   0.93651   0.00000  Uiso   1.00
C1017  C     0.55258   0.37393   0.81779   0.00000  Uiso   1.00
C1018  C     0.64402   0.24089   0.73556   0.00000  Uiso   1.00
C1019  C     0.64229   0.24429   0.64122   0.00000  Uiso   1.00
C1020  C     0.60544   0.25541   0.73715   0.00000  Uiso   1.00
C1021  C     0.60290   0.25680   0.64350   0.00000  Uiso   1.00
C1022  C     0.66199   0.23243   0.68738   0.00000  Uiso   1.00
C1023  C     0.55074   0.29124   0.69337   0.00000  Uiso   1.00
C1024  C     0.58453   0.26533   0.69118   0.00000  Uiso   1.00
C1025  C     0.55320   0.37421   0.56717   0.00000  Uiso   1.00
C1026  C     0.58622   0.26596   0.94340   0.00000  Uiso   1.00
C1027  C     0.64698   0.24280   0.98902   0.00000  Uiso   1.00
C1028  C     0.63623   0.23265   0.89576   0.00000  Uiso   1.00
C1029  C     0.60927   0.26039   0.98988   0.00000  Uiso   1.00
C1030  C     0.59923   0.25035   0.89682   0.00000  Uiso   1.00
C1031  C     0.69570   0.20574   0.68377   0.00000  Uiso   1.00
C1032  C     0.66018   0.22982   0.94071   0.00000  Uiso   1.00
C1033  C     0.55468   0.29577   0.94300   0.00000  Uiso   1.00
C1034  C     0.61533   0.39816   0.60340   0.00000  Uiso   1.00
C1035  C     0.58878   0.39621   0.56125   0.00000  Uiso   1.00
C1036  C     0.60391   0.40466   0.26633   0.00000  Uiso   1.00
C1037  C     0.66148   0.43303   0.30831   0.00000  Uiso   1.00
C1038  C     0.59844   0.58625   0.39276   0.00000  Uiso   1.00
C1039  C     0.65118   0.41811   0.10752   0.00000  Uiso   1.00
C1040  C     0.59824   0.41845   0.02253   0.00000  Uiso   1.00
C1041  C     0.59826   0.58153   0.14275   0.00000  Uiso   1.00
C1042  C     0.69711   0.45611   0.30752   0.00000  Uiso   1.00
C1043  C     0.64876   0.57778   0.23028   0.00000  Uiso   1.00
C1044  C     0.63174   0.56024   0.14237   0.00000  Uiso   1.00
C1045  C     0.65969   0.56080   0.43271   0.00000  Uiso   1.00
C1046  C     0.63464   0.43662   0.01906   0.00000  Uiso   1.00
C1047  C     0.65049   0.58340   0.47565   0.00000  Uiso   1.00
C1048  C     0.69530   0.53654   0.18028   0.00000  Uiso   1.00
C1049  C     0.65633   0.55755   0.18593   0.00000  Uiso   1.00
C1050  C     0.69877   0.45615   0.05867   0.00000  Uiso   1.00
C1051  C     0.66068   0.43525   0.06045   0.00000  Uiso   1.00
C1052  C     0.63330   0.56351   0.39008   0.00000  Uiso   1.00
C1053  C     0.63967   0.42479   0.26317   0.00000  Uiso   1.00
C1054  C     0.69619   0.53740   0.43125   0.00000  Uiso   1.00
C1055  C     0.61476   0.59880   0.23230   0.00000  Uiso   1.00
C1056  C     0.64802   0.41784   0.35675   0.00000  Uiso   1.00
C1057  C     0.66397   0.43401   0.80825   0.00000  Uiso   1.00
C1058  C     0.65170   0.58249   0.97804   0.00000  Uiso   1.00
C1059  C     0.60520   0.40806   0.76813   0.00000  Uiso   1.00
C1060  C     0.59732   0.41600   0.51491   0.00000  Uiso   1.00
C1061  C     0.64814   0.57482   0.73245   0.00000  Uiso   1.00
C1062  C     0.69963   0.45854   0.80641   0.00000  Uiso   1.00
C1063  C     0.63094   0.55945   0.64127   0.00000  Uiso   1.00
C1064  C     0.59503   0.57747   0.64616   0.00000  Uiso   1.00
C1065  C     0.63334   0.43632   0.51320   0.00000  Uiso   1.00
C1066  C     0.69620   0.53677   0.68314   0.00000  Uiso   1.00
C1067  C     0.65818   0.55746   0.68638   0.00000  Uiso   1.00
C1068  C     0.69698   0.45884   0.55529   0.00000  Uiso   1.00
C1069  C     0.65981   0.43743   0.55641   0.00000  Uiso   1.00
C1070  C     0.60071   0.58756   0.89144   0.00000  Uiso   1.00
C1071  C     0.63383   0.56421   0.89183   0.00000  Uiso   1.00
C1072  C     0.63911   0.42788   0.76254   0.00000  Uiso   1.00
C1073  C     0.64983   0.41759   0.60065   0.00000  Uiso   1.00
C1074  C     0.69590   0.53734   0.93183   0.00000  Uiso   1.00
C1075  C     0.66038   0.56192   0.93213   0.00000  Uiso   1.00
C1076  C     0.64777   0.42233   0.85598   0.00000  Uiso   1.00
C1077  C     0.61171   0.40460   0.86032   0.00000  Uiso   1.00
C1078  C     0.61427   0.59690   0.73356   0.00000  Uiso   1.00
C1079  C     0.58622   0.59688   0.69044   0.00000  Uiso   1.00
C1080  C     0.61517   0.60378   0.47850   0.00000  Uiso   1.00
C1081  C     0.58907   0.60244   0.18761   0.00000  Uiso   1.00
C1082  C     0.55521   0.62709   0.18879   0.00000  Uiso   1.00
C1083  C     0.59663   0.75906   0.02337   0.00000  Uiso   1.00
C1084  C     0.61608   0.73314   0.10561   0.00000  Uiso   1.00
C1085  C     0.63219   0.77933   0.02201   0.00000  Uiso   1.00
C1086  C     0.65187   0.75412   0.10437   0.00000  Uiso   1.00
C1087  C     0.55211   0.71337   0.06692   0.00000  Uiso   1.00
C1088  C     0.58820   0.73689   0.06628   0.00000  Uiso   1.00
C1089  C     0.65981   0.77650   0.06371   0.00000  Uiso   1.00
C1090  C     0.55102   0.62624   0.43809   0.00000  Uiso   1.00
C1091  C     0.60396   0.74650   0.26585   0.00000  Uiso   1.00
C1092  C     0.61778   0.72812   0.35372   0.00000  Uiso   1.00
C1093  C     0.63976   0.76701   0.26683   0.00000  Uiso   1.00
C1094  C     0.65375   0.74767   0.35240   0.00000  Uiso   1.00
C1095  C     0.55338   0.70791   0.31295   0.00000  Uiso   1.00
C1096  C     0.59145   0.72647   0.31033   0.00000  Uiso   1.00
C1097  C     0.66469   0.76797   0.31003   0.00000  Uiso   1.00
C1098  C     0.69848   0.79477   0.31014   0.00000  Uiso   1.00
C1099  C     0.58905   0.60692   0.43586   0.00000  Uiso   1.00
C1100  C     0.69779   0.79719   0.06258   0.00000  Uiso   1.00
C1101  C     0.69762   0.79646   0.81664   0.00000  Uiso   1.00
C1102  C     0.59094   0.60554   0.93623   0.00000  Uiso   1.00
C1103  C     0.54970   0.62308   0.69050   0.00000  Uiso   1.00
C1104  C     0.60611   0.74184   0.51665   0.00000  Uiso   1.00
C1105  C     0.60415   0.74447   0.61016   0.00000  Uiso   1.00
C1106  C     0.64167   0.76007   0.51596   0.00000  Uiso   1.00
C1107  C     0.64104   0.76211   0.61106   0.00000  Uiso   1.00
C1108  C     0.55075   0.70877   0.56232   0.00000  Uiso   1.00
C1109  C     0.58702   0.73343   0.56215   0.00000  Uiso   1.00
C1110  C     0.66138   0.77019   0.56273   0.00000  Uiso   1.00
C1111  C     0.55436   0.62779   0.93875   0.00000  Uiso   1.00
C1112  C     0.60191   0.75135   0.77158   0.00000  Uiso   1.00
C1113  C     0.61479   0.73241   0.85898   0.00000  Uiso   1.00
C1114  C     0.63530   0.77440   0.77270   0.00000  Uiso   1.00
C1115  C     0.64982   0.75297   0.85996   0.00000  Uiso   1.00
C1116  C     0.55561   0.70612   0.81268   0.00000  Uiso   1.00
C1117  C     0.59018   0.73092   0.81422   0.00000  Uiso   1.00
C1118  C     0.66096   0.77460   0.81646   0.00000  Uiso   1.00
C1119  C     0.69787   0.79342   0.56209   0.00000  Uiso   1.00
C1120  C     0.61543   0.60267   0.98015   0.00000  Uiso   1.00
C1121  C     0.64607   0.91112   0.23114   0.00000  Uiso   1.00
C1122  C     0.64095   0.90710   0.13855   0.00000  Uiso   1.00
C1123  C     0.61112   0.93089   0.23268   0.00000  Uiso   1.00
C1124  C     0.60729   0.92806   0.14021   0.00000  Uiso   1.00
C1125  C     0.69742   0.87649   0.18634   0.00000  Uiso   1.00
C1126  C     0.66189   0.89920   0.18549   0.00000  Uiso   1.00
C1127  C     0.55202   0.95752   0.18675   0.00000  Uiso   1.00
C1128  C     0.59194   0.94054   0.18566   0.00000  Uiso   1.00
C1129  C     0.64233   0.90726   0.48642   0.00000  Uiso   1.00
C1130  C     0.64971   0.91427   0.39291   0.00000  Uiso   1.00
C1131  C     0.60345   0.92081   0.48425   0.00000  Uiso   1.00
C1132  C     0.61331   0.93371   0.39353   0.00000  Uiso   1.00
C1133  C     0.69724   0.87586   0.44153   0.00000  Uiso   1.00
C1134  C     0.66443   0.90132   0.44091   0.00000  Uiso   1.00
C1135  C     0.55113   0.95919   0.43661   0.00000  Uiso   1.00
C1136  C     0.58985   0.93712   0.43853   0.00000  Uiso   1.00
C1137  C     0.64918   0.91349   0.73673   0.00000  Uiso   1.00
C1138  C     0.63806   0.89664   0.64774   0.00000  Uiso   1.00
C1139  C     0.61309   0.93221   0.73540   0.00000  Uiso   1.00
C1140  C     0.60423   0.91759   0.64674   0.00000  Uiso   1.00
C1141  C     0.69886   0.87521   0.68971   0.00000  Uiso   1.00
C1142  C     0.66093   0.89509   0.69248   0.00000  Uiso   1.00
C1143  C     0.55468   0.95987   0.68966   0.00000  Uiso   1.00
C1144  C     0.58994   0.93569   0.69070   0.00000  Uiso   1.00
C1145  C     0.63816   0.89585   0.98335   0.00000  Uiso   1.00
C1146  C     0.65377   0.91801   0.89623   0.00000  Uiso   1.00
C1147  C     0.60113   0.91319   0.98314   0.00000  Uiso   1.00
C1148  C     0.61817   0.93557   0.89759   0.00000  Uiso   1.00
C1149  C     0.70291   0.87721   0.93830   0.00000  Uiso   1.00
C1150  C     0.66343   0.89774   0.93919   0.00000  Uiso   1.00
C1151  C     0.55365   0.95632   0.93690   0.00000  Uiso   1.00
C1152  C     0.59172   0.93332   0.93959   0.00000  Uiso   1.00
C1153  C     0.87439   0.11370   0.09405   0.00000  Uiso   1.00
C1154  C     0.84755   0.07491   0.02974   0.00000  Uiso   1.00
C1155  C     0.90925   0.09461   0.09388   0.00000  Uiso   1.00
C1156  C     0.88309   0.05528   0.02568   0.00000  Uiso   1.00
C1157  C     0.80571   0.12896   0.06422   0.00000  Uiso   1.00
C1158  C     0.84299   0.10551   0.06273   0.00000  Uiso   1.00
C1159  C     0.94925   0.04195   0.05833   0.00000  Uiso   1.00
C1160  C     0.91402   0.06474   0.06021   0.00000  Uiso   1.00
C1161  C     0.86117   0.09836   0.35831   0.00000  Uiso   1.00
C1162  C     0.84635   0.08392   0.27139   0.00000  Uiso   1.00
C1163  C     0.89536   0.07600   0.35650   0.00000  Uiso   1.00
C1164  C     0.88040   0.06053   0.26807   0.00000  Uiso   1.00
C1165  C     0.80046   0.12562   0.31757   0.00000  Uiso   1.00
C1166  C     0.83660   0.10157   0.31718   0.00000  Uiso   1.00
C1167  C     0.94365   0.03822   0.30889   0.00000  Uiso   1.00
C1168  C     0.90650   0.05878   0.31126   0.00000  Uiso   1.00
C1169  C     0.86449   0.10136   0.60682   0.00000  Uiso   1.00
C1170  C     0.85307   0.08626   0.51630   0.00000  Uiso   1.00
C1171  C     0.89779   0.07800   0.60574   0.00000  Uiso   1.00
C1172  C     0.88662   0.06485   0.51527   0.00000  Uiso   1.00
C1173  C     0.80434   0.12723   0.56477   0.00000  Uiso   1.00
C1174  C     0.84215   0.10579   0.56121   0.00000  Uiso   1.00
C1175  C     0.94596   0.03620   0.56029   0.00000  Uiso   1.00
C1176  C     0.90997   0.06030   0.56089   0.00000  Uiso   1.00
C1177  C     0.85814   0.09279   0.85955   0.00000  Uiso   1.00
C1178  C     0.85482   0.08859   0.76652   0.00000  Uiso   1.00
C1179  C     0.89210   0.07147   0.85793   0.00000  Uiso   1.00
C1180  C     0.88922   0.06768   0.76342   0.00000  Uiso   1.00
C1181  C     0.80564   0.12607   0.81280   0.00000  Uiso   1.00
C1182  C     0.83858   0.10088   0.81288   0.00000  Uiso   1.00
C1183  C     0.94495   0.03655   0.80855   0.00000  Uiso   1.00
C1184  C     0.90826   0.05850   0.81062   0.00000  Uiso   1.00
C1185  C     0.80012   0.20750   0.43829   0.00000  Uiso   1.00
C1186  C     0.90533   0.38783   0.30916   0.00000  Uiso   1.00
C1187  C     0.80220   0.20830   0.19372   0.00000  Uiso   1.00
C1188  C     0.89267   0.25754   0.14217   0.00000  Uiso   1.00
C1189  C     0.89623   0.25381   0.23499   0.00000  Uiso   1.00
C1190  C     0.85756   0.23629   0.14317   0.00000  Uiso   1.00
C1191  C     0.86000   0.23506   0.23515   0.00000  Uiso   1.00
C1192  C     0.94890   0.28984   0.18844   0.00000  Uiso   1.00
C1193  C     0.91134   0.26683   0.18695   0.00000  Uiso   1.00
C1194  C     0.83958   0.22797   0.19063   0.00000  Uiso   1.00
C1195  C     0.94646   0.37199   0.06474   0.00000  Uiso   1.00
C1196  C     0.87809   0.27811   0.40028   0.00000  Uiso   1.00
C1197  C     0.90652   0.23988   0.46732   0.00000  Uiso   1.00
C1198  C     0.84326   0.25846   0.40085   0.00000  Uiso   1.00
C1199  C     0.87063   0.21983   0.46952   0.00000  Uiso   1.00
C1200  C     0.94522   0.29116   0.43668   0.00000  Uiso   1.00
C1201  C     0.90947   0.26874   0.43399   0.00000  Uiso   1.00
C1202  C     0.83777   0.23016   0.43743   0.00000  Uiso   1.00
C1203  C     0.94366   0.36725   0.31077   0.00000  Uiso   1.00
C1204  C     0.90873   0.39304   0.06123   0.00000  Uiso   1.00
C1205  C     0.88111   0.38898   0.26453   0.00000  Uiso   1.00
C1206  C     0.80317   0.20564   0.93856   0.00000  Uiso   1.00
C1207  C     0.89518   0.25248   0.64390   0.00000  Uiso   1.00
C1208  C     0.87804   0.27472   0.72979   0.00000  Uiso   1.00
C1209  C     0.86071   0.23176   0.64309   0.00000  Uiso   1.00
C1210  C     0.84272   0.25536   0.72746   0.00000  Uiso   1.00
C1211  C     0.94398   0.29193   0.68694   0.00000  Uiso   1.00
C1212  C     0.90474   0.27411   0.68732   0.00000  Uiso   1.00
C1213  C     0.83612   0.23196   0.68514   0.00000  Uiso   1.00
C1214  C     0.94595   0.37270   0.56122   0.00000  Uiso   1.00
C1215  C     0.89645   0.25519   0.89025   0.00000  Uiso   1.00
C1216  C     0.89009   0.26193   0.98460   0.00000  Uiso   1.00
C1217  C     0.86111   0.23500   0.88858   0.00000  Uiso   1.00
C1218  C     0.85676   0.23961   0.98205   0.00000  Uiso   1.00
C1219  C     0.94955   0.28843   0.94186   0.00000  Uiso   1.00
C1220  C     0.91232   0.26701   0.93873   0.00000  Uiso   1.00
C1221  C     0.91267   0.39958   0.56173   0.00000  Uiso   1.00
C1222  C     0.84097   0.22810   0.93673   0.00000  Uiso   1.00
C1223  C     0.94584   0.36758   0.81388   0.00000  Uiso   1.00
C1224  C     0.80091   0.20854   0.68796   0.00000  Uiso   1.00
C1225  C     0.88717   0.39423   0.85755   0.00000  Uiso   1.00
C1226  C     0.91084   0.39164   0.81213   0.00000  Uiso   1.00
C1227  C     0.86302   0.43179   0.35339   0.00000  Uiso   1.00
C1228  C     0.89132   0.40452   0.01546   0.00000  Uiso   1.00
C1229  C     0.90565   0.57542   0.47519   0.00000  Uiso   1.00
C1230  C     0.85671   0.42368   0.01723   0.00000  Uiso   1.00
C1231  C     0.83699   0.43092   0.31222   0.00000  Uiso   1.00
C1232  C     0.89578   0.58634   0.22967   0.00000  Uiso   1.00
C1233  C     0.80381   0.53754   0.43527   0.00000  Uiso   1.00
C1234  C     0.84721   0.58419   0.14310   0.00000  Uiso   1.00
C1235  C     0.87009   0.55513   0.47898   0.00000  Uiso   1.00
C1236  C     0.85295   0.57862   0.39128   0.00000  Uiso   1.00
C1237  C     0.86150   0.56669   0.23132   0.00000  Uiso   1.00
C1238  C     0.80243   0.45764   0.06358   0.00000  Uiso   1.00
C1239  C     0.83897   0.43531   0.06365   0.00000  Uiso   1.00
C1240  C     0.80240   0.53636   0.18648   0.00000  Uiso   1.00
C1241  C     0.83696   0.56304   0.18620   0.00000  Uiso   1.00
C1242  C     0.84462   0.40735   0.27131   0.00000  Uiso   1.00
C1243  C     0.80250   0.45582   0.31224   0.00000  Uiso   1.00
C1244  C     0.85520   0.42214   0.11084   0.00000  Uiso   1.00
C1245  C     0.84287   0.55886   0.43661   0.00000  Uiso   1.00
C1246  C     0.89875   0.41165   0.35136   0.00000  Uiso   1.00
C1247  C     0.88958   0.40103   0.10736   0.00000  Uiso   1.00
C1248  C     0.88778   0.59914   0.39111   0.00000  Uiso   1.00
C1249  C     0.91441   0.59789   0.43349   0.00000  Uiso   1.00
C1250  C     0.89639   0.40654   0.76750   0.00000  Uiso   1.00
C1251  C     0.85219   0.41490   0.85780   0.00000  Uiso   1.00
C1252  C     0.85915   0.42992   0.60777   0.00000  Uiso   1.00
C1253  C     0.89947   0.58497   0.97808   0.00000  Uiso   1.00
C1254  C     0.83791   0.56392   0.93609   0.00000  Uiso   1.00
C1255  C     0.80439   0.45649   0.81288   0.00000  Uiso   1.00
C1256  C     0.89494   0.40784   0.51607   0.00000  Uiso   1.00
C1257  C     0.85810   0.42490   0.51380   0.00000  Uiso   1.00
C1258  C     0.86482   0.56275   0.97971   0.00000  Uiso   1.00
C1259  C     0.86495   0.56330   0.73208   0.00000  Uiso   1.00
C1260  C     0.80384   0.45878   0.56114   0.00000  Uiso   1.00
C1261  C     0.84010   0.43627   0.56031   0.00000  Uiso   1.00
C1262  C     0.80318   0.53864   0.68759   0.00000  Uiso   1.00
C1263  C     0.84112   0.56034   0.68715   0.00000  Uiso   1.00
C1264  C     0.85018   0.57861   0.88881   0.00000  Uiso   1.00
C1265  C     0.86448   0.42976   0.76766   0.00000  Uiso   1.00
C1266  C     0.84144   0.43504   0.81189   0.00000  Uiso   1.00
C1267  C     0.80311   0.53929   0.93538   0.00000  Uiso   1.00
C1268  C     0.85378   0.57475   0.63982   0.00000  Uiso   1.00
C1269  C     0.89790   0.58683   0.73165   0.00000  Uiso   1.00
C1270  C     0.89626   0.41178   0.60955   0.00000  Uiso   1.00
C1271  C     0.88724   0.59708   0.63955   0.00000  Uiso   1.00
C1272  C     0.88974   0.59555   0.88701   0.00000  Uiso   1.00
C1273  C     0.90728   0.60570   0.18524   0.00000  Uiso   1.00
C1274  C     0.94250   0.62962   0.18194   0.00000  Uiso   1.00
C1275  C     0.86665   0.77180   0.10661   0.00000  Uiso   1.00
C1276  C     0.84462   0.74761   0.02475   0.00000  Uiso   1.00
C1277  C     0.89944   0.74842   0.10745   0.00000  Uiso   1.00
C1278  C     0.87902   0.72738   0.01969   0.00000  Uiso   1.00
C1279  C     0.83989   0.77149   0.06681   0.00000  Uiso   1.00
C1280  C     0.94613   0.70940   0.05579   0.00000  Uiso   1.00
C1281  C     0.90791   0.72988   0.05998   0.00000  Uiso   1.00
C1282  C     0.94851   0.62227   0.43330   0.00000  Uiso   1.00
C1283  C     0.86607   0.76892   0.35906   0.00000  Uiso   1.00
C1284  C     0.85064   0.75305   0.26857   0.00000  Uiso   1.00
C1285  C     0.90156   0.75079   0.35372   0.00000  Uiso   1.00
C1286  C     0.88652   0.73275   0.26884   0.00000  Uiso   1.00
C1287  C     0.83934   0.77152   0.31514   0.00000  Uiso   1.00
C1288  C     0.94801   0.70635   0.31018   0.00000  Uiso   1.00
C1289  C     0.91235   0.73006   0.31094   0.00000  Uiso   1.00
C1290  C     0.80438   0.79698   0.31681   0.00000  Uiso   1.00
C1291  C     0.88119   0.60476   0.14178   0.00000  Uiso   1.00
C1292  C     0.80236   0.79368   0.06982   0.00000  Uiso   1.00
C1293  C     0.80293   0.79314   0.56971   0.00000  Uiso   1.00
C1294  C     0.94596   0.62633   0.68441   0.00000  Uiso   1.00
C1295  C     0.85601   0.75852   0.61467   0.00000  Uiso   1.00
C1296  C     0.85208   0.75770   0.52042   0.00000  Uiso   1.00
C1297  C     0.89300   0.73996   0.61175   0.00000  Uiso   1.00
C1298  C     0.88857   0.73937   0.51741   0.00000  Uiso   1.00
C1299  C     0.83783   0.76860   0.56960   0.00000  Uiso   1.00
C1300  C     0.94549   0.70811   0.55782   0.00000  Uiso   1.00
C1301  C     0.90957   0.73123   0.56253   0.00000  Uiso   1.00
C1302  C     0.94755   0.62465   0.93111   0.00000  Uiso   1.00
C1303  C     0.86357   0.76561   0.86071   0.00000  Uiso   1.00
C1304  C     0.84839   0.75089   0.77082   0.00000  Uiso   1.00
C1305  C     0.90077   0.74811   0.85632   0.00000  Uiso   1.00
C1306  C     0.88302   0.72894   0.76776   0.00000  Uiso   1.00
C1307  C     0.83990   0.76920   0.81648   0.00000  Uiso   1.00
C1308  C     0.94633   0.70813   0.80906   0.00000  Uiso   1.00
C1309  C     0.90899   0.72855   0.81186   0.00000  Uiso   1.00
C1310  C     0.91241   0.60155   0.93073   0.00000  Uiso   1.00
C1311  C     0.80271   0.79184   0.82054   0.00000  Uiso   1.00
C1312  C     0.91079   0.60261   0.68476   0.00000  Uiso   1.00
C1313  C     0.88738   0.93290   0.13894   0.00000  Uiso   1.00
C1314  C     0.90260   0.91865   0.22594   0.00000  Uiso   1.00
C1315  C     0.84865   0.91832   0.14405   0.00000  Uiso   1.00
C1316  C     0.86756   0.89650   0.23035   0.00000  Uiso   1.00
C1317  C     0.95031   0.95796   0.17768   0.00000  Uiso   1.00
C1318  C     0.91275   0.93630   0.17980   0.00000  Uiso   1.00
C1319  C     0.80197   0.87840   0.19418   0.00000  Uiso   1.00
C1320  C     0.84039   0.89829   0.19066   0.00000  Uiso   1.00
C1321  C     0.89166   0.93026   0.39313   0.00000  Uiso   1.00
C1322  C     0.90440   0.91917   0.48639   0.00000  Uiso   1.00
C1323  C     0.85554   0.90997   0.39745   0.00000  Uiso   1.00
C1324  C     0.86850   0.89908   0.48932   0.00000  Uiso   1.00
C1325  C     0.94976   0.95846   0.43459   0.00000  Uiso   1.00
C1326  C     0.91475   0.93607   0.43876   0.00000  Uiso   1.00
C1327  C     0.80642   0.87432   0.44393   0.00000  Uiso   1.00
C1328  C     0.84584   0.89413   0.44329   0.00000  Uiso   1.00
C1329  C     0.88557   0.93361   0.64561   0.00000  Uiso   1.00
C1330  C     0.90807   0.90779   0.72863   0.00000  Uiso   1.00
C1331  C     0.85122   0.91215   0.64825   0.00000  Uiso   1.00
C1332  C     0.87168   0.88699   0.72907   0.00000  Uiso   1.00
C1333  C     0.95037   0.95571   0.68379   0.00000  Uiso   1.00
C1334  C     0.91464   0.93273   0.68519   0.00000  Uiso   1.00
C1335  C     0.80345   0.87177   0.69518   0.00000  Uiso   1.00
C1336  C     0.84181   0.89364   0.69205   0.00000  Uiso   1.00
C1337  C     0.88945   0.93254   0.89353   0.00000  Uiso   1.00
C1338  C     0.89837   0.92304   0.98455   0.00000  Uiso   1.00
C1339  C     0.85667   0.91001   0.89331   0.00000  Uiso   1.00
C1340  C     0.86406   0.90166   0.98547   0.00000  Uiso   1.00
C1341  C     0.94923   0.95823   0.93635   0.00000  Uiso   1.00
C1342  C     0.91082   0.93900   0.93906   0.00000  Uiso   1.00
C1343  C     0.80757   0.87091   0.94322   0.00000  Uiso   1.00
C1344  C     0.84283   0.89478   0.93995   0.00000  Uiso   1.00
O1345  O     0.04421   0.02313   0.35575   0.00000  Uiso   1.00
O1346  O     0.20556   0.18946   0.48234   0.00000  Uiso   1.00
O1347  O     0.02647   0.04045   0.27225   0.00000  Uiso   1.00
O1348  O     0.20461   0.14571   0.35661   0.00000  Uiso   1.00
O1349  O     0.04735   0.02678   0.10709   0.00000  Uiso   1.00
O1350  O     0.22217   0.12591   0.27600   0.00000  Uiso   1.00
O1351  O     0.22165   0.12977   0.02559   0.00000  Uiso   1.00
O1352  O     0.20584   0.14529   0.11057   0.00000  Uiso   1.00
O1353  O     0.20572   0.18676   0.23481   0.00000  Uiso   1.00
O1354  O     0.03562   0.03860   0.01951   0.00000  Uiso   1.00
O1355  O     0.04505   0.02616   0.85613   0.00000  Uiso   1.00
O1356  O     0.04443   0.02446   0.60971   0.00000  Uiso   1.00
O1357  O     0.02847   0.04043   0.77029   0.00000  Uiso   1.00
O1358  O     0.20481   0.14179   0.85940   0.00000  Uiso   1.00
O1359  O     0.21794   0.12924   0.77069   0.00000  Uiso   1.00
O1360  O     0.02941   0.03950   0.52311   0.00000  Uiso   1.00
O1361  O     0.22002   0.12989   0.52441   0.00000  Uiso   1.00
O1362  O     0.20844   0.14380   0.60884   0.00000  Uiso   1.00
O1363  O     0.20703   0.18989   0.73190   0.00000  Uiso   1.00
O1364  O     0.20698   0.19145   0.98620   0.00000  Uiso   1.00
O1365  O     0.03306   0.36825   0.35201   0.00000  Uiso   1.00
O1366  O     0.04458   0.35648   0.26464   0.00000  Uiso   1.00
O1367  O     0.04270   0.30378   0.39146   0.00000  Uiso   1.00
O1368  O     0.02764   0.29000   0.47551   0.00000  Uiso   1.00
O1369  O     0.02958   0.29437   0.22736   0.00000  Uiso   1.00
O1370  O     0.04691   0.31384   0.14427   0.00000  Uiso   1.00
O1371  O     0.02999   0.37184   0.10031   0.00000  Uiso   1.00
O1372  O     0.21962   0.20496   0.40035   0.00000  Uiso   1.00
O1373  O     0.04337   0.35854   0.01418   0.00000  Uiso   1.00
O1374  O     0.22177   0.20626   0.15050   0.00000  Uiso   1.00
O1375  O     0.02832   0.37149   0.84685   0.00000  Uiso   1.00
O1376  O     0.04700   0.35311   0.76410   0.00000  Uiso   1.00
O1377  O     0.04633   0.31055   0.88907   0.00000  Uiso   1.00
O1378  O     0.03238   0.29782   0.97414   0.00000  Uiso   1.00
O1379  O     0.04101   0.30367   0.63864   0.00000  Uiso   1.00
O1380  O     0.03106   0.36698   0.59945   0.00000  Uiso   1.00
O1381  O     0.21951   0.20360   0.89881   0.00000  Uiso   1.00
O1382  O     0.21992   0.20380   0.64643   0.00000  Uiso   1.00
O1383  O     0.02993   0.29163   0.72611   0.00000  Uiso   1.00
O1384  O     0.04188   0.35197   0.51068   0.00000  Uiso   1.00
O1385  O     0.21837   0.46482   0.35408   0.00000  Uiso   1.00
O1386  O     0.20379   0.47890   0.26699   0.00000  Uiso   1.00
O1387  O     0.20202   0.47783   0.02142   0.00000  Uiso   1.00
O1388  O     0.20358   0.52448   0.39134   0.00000  Uiso   1.00
O1389  O     0.21807   0.46081   0.10598   0.00000  Uiso   1.00
O1390  O     0.20313   0.52152   0.14592   0.00000  Uiso   1.00
O1391  O     0.21706   0.53747   0.47726   0.00000  Uiso   1.00
O1392  O     0.21852   0.53932   0.22878   0.00000  Uiso   1.00
O1393  O     0.22131   0.53907   0.72951   0.00000  Uiso   1.00
O1394  O     0.21827   0.53798   0.97600   0.00000  Uiso   1.00
O1395  O     0.21865   0.45916   0.85370   0.00000  Uiso   1.00
O1396  O     0.21992   0.46385   0.60263   0.00000  Uiso   1.00
O1397  O     0.20412   0.47817   0.76990   0.00000  Uiso   1.00
O1398  O     0.20444   0.52205   0.89106   0.00000  Uiso   1.00
O1399  O     0.20462   0.47908   0.52036   0.00000  Uiso   1.00
O1400  O     0.20378   0.52572   0.64376   0.00000  Uiso   1.00
O1401  O     0.04414   0.69093   0.35688   0.00000  Uiso   1.00
O1402  O     0.03199   0.70504   0.27221   0.00000  Uiso   1.00
O1403  O     0.22038   0.79582   0.09957   0.00000  Uiso   1.00
O1404  O     0.04163   0.69050   0.10809   0.00000  Uiso   1.00
O1405  O     0.04358   0.64604   0.22902   0.00000  Uiso   1.00
O1406  O     0.02534   0.62785   0.14735   0.00000  Uiso   1.00
O1407  O     0.04260   0.64373   0.48104   0.00000  Uiso   1.00
O1408  O     0.03021   0.62713   0.39693   0.00000  Uiso   1.00
O1409  O     0.03089   0.70378   0.02107   0.00000  Uiso   1.00
O1410  O     0.21591   0.79825   0.35115   0.00000  Uiso   1.00
O1411  O     0.04471   0.69127   0.85882   0.00000  Uiso   1.00
O1412  O     0.02865   0.70459   0.77378   0.00000  Uiso   1.00
O1413  O     0.21598   0.79506   0.59736   0.00000  Uiso   1.00
O1414  O     0.04348   0.68799   0.60657   0.00000  Uiso   1.00
O1415  O     0.21684   0.79643   0.85153   0.00000  Uiso   1.00
O1416  O     0.04692   0.64668   0.73060   0.00000  Uiso   1.00
O1417  O     0.02731   0.62647   0.65031   0.00000  Uiso   1.00
O1418  O     0.04352   0.64179   0.98369   0.00000  Uiso   1.00
O1419  O     0.03130   0.63080   0.89561   0.00000  Uiso   1.00
O1420  O     0.02806   0.70452   0.52291   0.00000  Uiso   1.00
O1421  O     0.20221   0.81554   0.26572   0.00000  Uiso   1.00
O1422  O     0.20473   0.81375   0.01543   0.00000  Uiso   1.00
O1423  O     0.22043   0.87496   0.47443   0.00000  Uiso   1.00
O1424  O     0.04743   0.98081   0.23375   0.00000  Uiso   1.00
O1425  O     0.03310   0.96347   0.15015   0.00000  Uiso   1.00
O1426  O     0.22226   0.87708   0.22561   0.00000  Uiso   1.00
O1427  O     0.20470   0.85677   0.14645   0.00000  Uiso   1.00
O1428  O     0.20234   0.85938   0.39169   0.00000  Uiso   1.00
O1429  O     0.04645   0.98054   0.48154   0.00000  Uiso   1.00
O1430  O     0.02950   0.96269   0.39879   0.00000  Uiso   1.00
O1431  O     0.20323   0.80800   0.76531   0.00000  Uiso   1.00
O1432  O     0.03604   0.96421   0.89405   0.00000  Uiso   1.00
O1433  O     0.22038   0.87377   0.97592   0.00000  Uiso   1.00
O1434  O     0.04690   0.98150   0.73185   0.00000  Uiso   1.00
O1435  O     0.03068   0.96251   0.65043   0.00000  Uiso   1.00
O1436  O     0.22168   0.87178   0.72682   0.00000  Uiso   1.00
O1437  O     0.20349   0.85485   0.64431   0.00000  Uiso   1.00
O1438  O     0.20739   0.86022   0.88928   0.00000  Uiso   1.00
O1439  O     0.04634   0.97479   0.98054   0.00000  Uiso   1.00
O1440  O     0.20152   0.81428   0.51402   0.00000  Uiso   1.00
O1441  O     0.29708   0.14547   0.26678   0.00000  Uiso   1.00
O1442  O     0.28201   0.13184   0.35279   0.00000  Uiso   1.00
O1443  O     0.46933   0.03820   0.27373   0.00000  Uiso   1.00
O1444  O     0.45710   0.02489   0.36040   0.00000  Uiso   1.00
O1445  O     0.29533   0.19279   0.39251   0.00000  Uiso   1.00
O1446  O     0.29303   0.14129   0.01537   0.00000  Uiso   1.00
O1447  O     0.29652   0.18938   0.14407   0.00000  Uiso   1.00
O1448  O     0.45767   0.02664   0.11119   0.00000  Uiso   1.00
O1449  O     0.47274   0.03849   0.02273   0.00000  Uiso   1.00
O1450  O     0.28097   0.12798   0.10097   0.00000  Uiso   1.00
O1451  O     0.29561   0.14255   0.77004   0.00000  Uiso   1.00
O1452  O     0.27913   0.12632   0.85411   0.00000  Uiso   1.00
O1453  O     0.46934   0.03627   0.77494   0.00000  Uiso   1.00
O1454  O     0.45736   0.02839   0.86249   0.00000  Uiso   1.00
O1455  O     0.29624   0.19238   0.64053   0.00000  Uiso   1.00
O1456  O     0.29471   0.14363   0.51460   0.00000  Uiso   1.00
O1457  O     0.29525   0.18929   0.89238   0.00000  Uiso   1.00
O1458  O     0.45675   0.02381   0.60814   0.00000  Uiso   1.00
O1459  O     0.47468   0.04051   0.52632   0.00000  Uiso   1.00
O1460  O     0.28214   0.12963   0.60037   0.00000  Uiso   1.00
O1461  O     0.46983   0.37194   0.35374   0.00000  Uiso   1.00
O1462  O     0.45579   0.31009   0.39542   0.00000  Uiso   1.00
O1463  O     0.47191   0.29347   0.47929   0.00000  Uiso   1.00
O1464  O     0.28152   0.20525   0.47668   0.00000  Uiso   1.00
O1465  O     0.45312   0.31147   0.14202   0.00000  Uiso   1.00
O1466  O     0.46699   0.29527   0.22701   0.00000  Uiso   1.00
O1467  O     0.45234   0.35471   0.27082   0.00000  Uiso   1.00
O1468  O     0.46740   0.37343   0.10310   0.00000  Uiso   1.00
O1469  O     0.45481   0.35876   0.01820   0.00000  Uiso   1.00
O1470  O     0.27810   0.20635   0.22516   0.00000  Uiso   1.00
O1471  O     0.46914   0.37318   0.85389   0.00000  Uiso   1.00
O1472  O     0.45439   0.31065   0.89368   0.00000  Uiso   1.00
O1473  O     0.45465   0.31559   0.64576   0.00000  Uiso   1.00
O1474  O     0.47017   0.29663   0.72753   0.00000  Uiso   1.00
O1475  O     0.45676   0.35972   0.76765   0.00000  Uiso   1.00
O1476  O     0.47403   0.37399   0.60211   0.00000  Uiso   1.00
O1477  O     0.45532   0.35538   0.51906   0.00000  Uiso   1.00
O1478  O     0.47065   0.29681   0.97757   0.00000  Uiso   1.00
O1479  O     0.28130   0.20474   0.97612   0.00000  Uiso   1.00
O1480  O     0.28343   0.20404   0.72877   0.00000  Uiso   1.00
O1481  O     0.27858   0.46270   0.27807   0.00000  Uiso   1.00
O1482  O     0.29356   0.47779   0.36188   0.00000  Uiso   1.00
O1483  O     0.29428   0.52556   0.48472   0.00000  Uiso   1.00
O1484  O     0.27797   0.54152   0.40049   0.00000  Uiso   1.00
O1485  O     0.27941   0.53847   0.14931   0.00000  Uiso   1.00
O1486  O     0.27640   0.46035   0.02825   0.00000  Uiso   1.00
O1487  O     0.29429   0.47607   0.11079   0.00000  Uiso   1.00
O1488  O     0.29531   0.52605   0.23557   0.00000  Uiso   1.00
O1489  O     0.27970   0.46139   0.77790   0.00000  Uiso   1.00
O1490  O     0.29548   0.47634   0.86018   0.00000  Uiso   1.00
O1491  O     0.29544   0.52084   0.98618   0.00000  Uiso   1.00
O1492  O     0.27888   0.53740   0.90119   0.00000  Uiso   1.00
O1493  O     0.27807   0.53970   0.65248   0.00000  Uiso   1.00
O1494  O     0.28104   0.46421   0.52648   0.00000  Uiso   1.00
O1495  O     0.29788   0.48180   0.61068   0.00000  Uiso   1.00
O1496  O     0.29606   0.52121   0.73377   0.00000  Uiso   1.00
O1497  O     0.45331   0.68600   0.26475   0.00000  Uiso   1.00
O1498  O     0.47402   0.62629   0.22207   0.00000  Uiso   1.00
O1499  O     0.45623   0.64393   0.13834   0.00000  Uiso   1.00
O1500  O     0.46955   0.62997   0.47176   0.00000  Uiso   1.00
O1501  O     0.47040   0.70678   0.09931   0.00000  Uiso   1.00
O1502  O     0.46990   0.70532   0.34627   0.00000  Uiso   1.00
O1503  O     0.45491   0.64452   0.38844   0.00000  Uiso   1.00
O1504  O     0.45740   0.69166   0.01380   0.00000  Uiso   1.00
O1505  O     0.27528   0.79601   0.27666   0.00000  Uiso   1.00
O1506  O     0.27888   0.79532   0.02397   0.00000  Uiso   1.00
O1507  O     0.27843   0.79217   0.77307   0.00000  Uiso   1.00
O1508  O     0.46769   0.62965   0.72838   0.00000  Uiso   1.00
O1509  O     0.45575   0.69008   0.76542   0.00000  Uiso   1.00
O1510  O     0.45450   0.64217   0.64134   0.00000  Uiso   1.00
O1511  O     0.47103   0.63013   0.97786   0.00000  Uiso   1.00
O1512  O     0.46661   0.70377   0.59989   0.00000  Uiso   1.00
O1513  O     0.47125   0.70446   0.85213   0.00000  Uiso   1.00
O1514  O     0.45541   0.64484   0.89355   0.00000  Uiso   1.00
O1515  O     0.45342   0.69032   0.51502   0.00000  Uiso   1.00
O1516  O     0.27586   0.79506   0.52043   0.00000  Uiso   1.00
O1517  O     0.45241   0.98191   0.48432   0.00000  Uiso   1.00
O1518  O     0.46757   0.96526   0.14635   0.00000  Uiso   1.00
O1519  O     0.46679   0.96471   0.40012   0.00000  Uiso   1.00
O1520  O     0.27925   0.87356   0.39798   0.00000  Uiso   1.00
O1521  O     0.29470   0.85610   0.48160   0.00000  Uiso   1.00
O1522  O     0.27990   0.87200   0.15114   0.00000  Uiso   1.00
O1523  O     0.29721   0.85355   0.23362   0.00000  Uiso   1.00
O1524  O     0.45418   0.97698   0.23363   0.00000  Uiso   1.00
O1525  O     0.29138   0.81450   0.35588   0.00000  Uiso   1.00
O1526  O     0.29650   0.81002   0.10861   0.00000  Uiso   1.00
O1527  O     0.28335   0.86891   0.89392   0.00000  Uiso   1.00
O1528  O     0.46932   0.96646   0.89951   0.00000  Uiso   1.00
O1529  O     0.29428   0.85867   0.98209   0.00000  Uiso   1.00
O1530  O     0.29086   0.80831   0.60515   0.00000  Uiso   1.00
O1531  O     0.45869   0.97656   0.98528   0.00000  Uiso   1.00
O1532  O     0.27910   0.86922   0.64828   0.00000  Uiso   1.00
O1533  O     0.29468   0.85087   0.73092   0.00000  Uiso   1.00
O1534  O     0.45619   0.97166   0.73752   0.00000  Uiso   1.00
O1535  O     0.46584   0.96245   0.64664   0.00000  Uiso   1.00
O1536  O     0.29323   0.80564   0.85920   0.00000  Uiso   1.00
O1537  O     0.53063   0.03824   0.35136   0.00000  Uiso   1.00
O1538  O     0.54346   0.02330   0.26575   0.00000  Uiso   1.00
O1539  O     0.54848   0.02066   0.01908   0.00000  Uiso   1.00
O1540  O     0.53438   0.03617   0.10573   0.00000  Uiso   1.00
O1541  O     0.70417   0.14322   0.26595   0.00000  Uiso   1.00
O1542  O     0.70577   0.14229   0.01959   0.00000  Uiso   1.00
O1543  O     0.72100   0.12735   0.10304   0.00000  Uiso   1.00
O1544  O     0.71852   0.12852   0.35164   0.00000  Uiso   1.00
O1545  O     0.70533   0.18907   0.14234   0.00000  Uiso   1.00
O1546  O     0.70023   0.18899   0.38823   0.00000  Uiso   1.00
O1547  O     0.53402   0.03834   0.85543   0.00000  Uiso   1.00
O1548  O     0.54504   0.02489   0.76796   0.00000  Uiso   1.00
O1549  O     0.54669   0.01879   0.51704   0.00000  Uiso   1.00
O1550  O     0.70612   0.14086   0.76546   0.00000  Uiso   1.00
O1551  O     0.53486   0.03330   0.60400   0.00000  Uiso   1.00
O1552  O     0.71715   0.13037   0.85384   0.00000  Uiso   1.00
O1553  O     0.70512   0.13982   0.51700   0.00000  Uiso   1.00
O1554  O     0.71994   0.12629   0.60266   0.00000  Uiso   1.00
O1555  O     0.70697   0.19295   0.89042   0.00000  Uiso   1.00
O1556  O     0.70311   0.18935   0.63877   0.00000  Uiso   1.00
O1557  O     0.54581   0.35264   0.36019   0.00000  Uiso   1.00
O1558  O     0.52690   0.36957   0.27792   0.00000  Uiso   1.00
O1559  O     0.52994   0.29484   0.40108   0.00000  Uiso   1.00
O1560  O     0.54544   0.31174   0.48506   0.00000  Uiso   1.00
O1561  O     0.71801   0.20684   0.22458   0.00000  Uiso   1.00
O1562  O     0.52831   0.37459   0.02724   0.00000  Uiso   1.00
O1563  O     0.54192   0.35893   0.11226   0.00000  Uiso   1.00
O1564  O     0.52869   0.29586   0.14668   0.00000  Uiso   1.00
O1565  O     0.54145   0.30891   0.23380   0.00000  Uiso   1.00
O1566  O     0.71591   0.20199   0.47705   0.00000  Uiso   1.00
O1567  O     0.54323   0.35714   0.86189   0.00000  Uiso   1.00
O1568  O     0.53176   0.37159   0.77544   0.00000  Uiso   1.00
O1569  O     0.53100   0.29778   0.90068   0.00000  Uiso   1.00
O1570  O     0.54816   0.31246   0.98679   0.00000  Uiso   1.00
O1571  O     0.54858   0.35335   0.60915   0.00000  Uiso   1.00
O1572  O     0.71646   0.20101   0.97887   0.00000  Uiso   1.00
O1573  O     0.52879   0.37260   0.52648   0.00000  Uiso   1.00
O1574  O     0.52923   0.29596   0.65261   0.00000  Uiso   1.00
O1575  O     0.54440   0.30994   0.73530   0.00000  Uiso   1.00
O1576  O     0.71932   0.20518   0.72666   0.00000  Uiso   1.00
O1577  O     0.70519   0.52155   0.38712   0.00000  Uiso   1.00
O1578  O     0.70642   0.47317   0.01471   0.00000  Uiso   1.00
O1579  O     0.72146   0.53807   0.46868   0.00000  Uiso   1.00
O1580  O     0.70477   0.47157   0.26356   0.00000  Uiso   1.00
O1581  O     0.71999   0.45971   0.34982   0.00000  Uiso   1.00
O1582  O     0.72023   0.45771   0.09946   0.00000  Uiso   1.00
O1583  O     0.71691   0.53296   0.22256   0.00000  Uiso   1.00
O1584  O     0.70280   0.51970   0.13785   0.00000  Uiso   1.00
O1585  O     0.71875   0.53622   0.97442   0.00000  Uiso   1.00
O1586  O     0.72368   0.45903   0.84740   0.00000  Uiso   1.00
O1587  O     0.70543   0.47765   0.51275   0.00000  Uiso   1.00
O1588  O     0.70768   0.47497   0.76241   0.00000  Uiso   1.00
O1589  O     0.70486   0.52136   0.88770   0.00000  Uiso   1.00
O1590  O     0.71885   0.46274   0.59792   0.00000  Uiso   1.00
O1591  O     0.70568   0.52425   0.63742   0.00000  Uiso   1.00
O1592  O     0.72144   0.53593   0.72302   0.00000  Uiso   1.00
O1593  O     0.54554   0.69123   0.35707   0.00000  Uiso   1.00
O1594  O     0.52931   0.70745   0.27295   0.00000  Uiso   1.00
O1595  O     0.72057   0.79761   0.10491   0.00000  Uiso   1.00
O1596  O     0.71792   0.79919   0.35407   0.00000  Uiso   1.00
O1597  O     0.53315   0.70861   0.02268   0.00000  Uiso   1.00
O1598  O     0.54562   0.69323   0.10861   0.00000  Uiso   1.00
O1599  O     0.54811   0.64702   0.22864   0.00000  Uiso   1.00
O1600  O     0.53316   0.63113   0.14646   0.00000  Uiso   1.00
O1601  O     0.54417   0.64408   0.48127   0.00000  Uiso   1.00
O1602  O     0.53025   0.62961   0.39574   0.00000  Uiso   1.00
O1603  O     0.54809   0.68844   0.85562   0.00000  Uiso   1.00
O1604  O     0.53263   0.70514   0.77164   0.00000  Uiso   1.00
O1605  O     0.54406   0.69221   0.60549   0.00000  Uiso   1.00
O1606  O     0.72076   0.79476   0.60440   0.00000  Uiso   1.00
O1607  O     0.54218   0.64255   0.73327   0.00000  Uiso   1.00
O1608  O     0.52919   0.62588   0.64594   0.00000  Uiso   1.00
O1609  O     0.54862   0.64662   0.97998   0.00000  Uiso   1.00
O1610  O     0.53041   0.62716   0.89769   0.00000  Uiso   1.00
O1611  O     0.52804   0.70677   0.52067   0.00000  Uiso   1.00
O1612  O     0.72047   0.79521   0.85876   0.00000  Uiso   1.00
O1613  O     0.70572   0.81580   0.02006   0.00000  Uiso   1.00
O1614  O     0.70428   0.81354   0.26775   0.00000  Uiso   1.00
O1615  O     0.52955   0.96077   0.22845   0.00000  Uiso   1.00
O1616  O     0.54391   0.97467   0.14363   0.00000  Uiso   1.00
O1617  O     0.71769   0.87380   0.22896   0.00000  Uiso   1.00
O1618  O     0.70622   0.85970   0.14270   0.00000  Uiso   1.00
O1619  O     0.70523   0.85803   0.39865   0.00000  Uiso   1.00
O1620  O     0.52566   0.96153   0.47841   0.00000  Uiso   1.00
O1621  O     0.54305   0.97611   0.39309   0.00000  Uiso   1.00
O1622  O     0.71950   0.87255   0.48378   0.00000  Uiso   1.00
O1623  O     0.70572   0.81295   0.77164   0.00000  Uiso   1.00
O1624  O     0.72505   0.87575   0.98025   0.00000  Uiso   1.00
O1625  O     0.70519   0.81266   0.52009   0.00000  Uiso   1.00
O1626  O     0.53263   0.96288   0.73231   0.00000  Uiso   1.00
O1627  O     0.54260   0.97095   0.64257   0.00000  Uiso   1.00
O1628  O     0.72126   0.87171   0.73237   0.00000  Uiso   1.00
O1629  O     0.70492   0.85636   0.64697   0.00000  Uiso   1.00
O1630  O     0.70906   0.85867   0.89526   0.00000  Uiso   1.00
O1631  O     0.53178   0.95948   0.97950   0.00000  Uiso   1.00
O1632  O     0.54756   0.97397   0.89454   0.00000  Uiso   1.00
O1633  O     0.77844   0.12941   0.27609   0.00000  Uiso   1.00
O1634  O     0.79340   0.14425   0.36043   0.00000  Uiso   1.00
O1635  O     0.95144   0.02209   0.26425   0.00000  Uiso   1.00
O1636  O     0.96732   0.03808   0.34966   0.00000  Uiso   1.00
O1637  O     0.79325   0.18990   0.23571   0.00000  Uiso   1.00
O1638  O     0.78234   0.13109   0.02230   0.00000  Uiso   1.00
O1639  O     0.97110   0.03941   0.10054   0.00000  Uiso   1.00
O1640  O     0.95841   0.02421   0.01665   0.00000  Uiso   1.00
O1641  O     0.79608   0.14460   0.10833   0.00000  Uiso   1.00
O1642  O     0.79285   0.19025   0.48093   0.00000  Uiso   1.00
O1643  O     0.78604   0.13038   0.76827   0.00000  Uiso   1.00
O1644  O     0.79599   0.14210   0.85656   0.00000  Uiso   1.00
O1645  O     0.95357   0.01830   0.76721   0.00000  Uiso   1.00
O1646  O     0.96862   0.03602   0.84946   0.00000  Uiso   1.00
O1647  O     0.79200   0.19159   0.98328   0.00000  Uiso   1.00
O1648  O     0.78196   0.12944   0.52290   0.00000  Uiso   1.00
O1649  O     0.95494   0.02130   0.51578   0.00000  Uiso   1.00
O1650  O     0.96878   0.03585   0.60103   0.00000  Uiso   1.00
O1651  O     0.79387   0.14301   0.60839   0.00000  Uiso   1.00
O1652  O     0.79266   0.19287   0.73132   0.00000  Uiso   1.00
O1653  O     0.77801   0.20506   0.39592   0.00000  Uiso   1.00
O1654  O     0.95088   0.30679   0.48167   0.00000  Uiso   1.00
O1655  O     0.95565   0.35826   0.35728   0.00000  Uiso   1.00
O1656  O     0.96630   0.29445   0.39337   0.00000  Uiso   1.00
O1657  O     0.97074   0.29493   0.14669   0.00000  Uiso   1.00
O1658  O     0.95504   0.30898   0.23007   0.00000  Uiso   1.00
O1659  O     0.96701   0.36856   0.27053   0.00000  Uiso   1.00
O1660  O     0.95427   0.35525   0.10632   0.00000  Uiso   1.00
O1661  O     0.96839   0.37068   0.02382   0.00000  Uiso   1.00
O1662  O     0.77909   0.20719   0.15212   0.00000  Uiso   1.00
O1663  O     0.77750   0.20552   0.64654   0.00000  Uiso   1.00
O1664  O     0.95295   0.35190   0.85824   0.00000  Uiso   1.00
O1665  O     0.95708   0.30562   0.98514   0.00000  Uiso   1.00
O1666  O     0.96694   0.29172   0.64650   0.00000  Uiso   1.00
O1667  O     0.95539   0.30461   0.73231   0.00000  Uiso   1.00
O1668  O     0.96919   0.36644   0.77199   0.00000  Uiso   1.00
O1669  O     0.95317   0.35374   0.60484   0.00000  Uiso   1.00
O1670  O     0.96782   0.36772   0.51943   0.00000  Uiso   1.00
O1671  O     0.97148   0.29090   0.90002   0.00000  Uiso   1.00
O1672  O     0.78364   0.20213   0.89428   0.00000  Uiso   1.00
O1673  O     0.77985   0.45839   0.27106   0.00000  Uiso   1.00
O1674  O     0.79338   0.47139   0.35680   0.00000  Uiso   1.00
O1675  O     0.79579   0.52199   0.47900   0.00000  Uiso   1.00
O1676  O     0.78175   0.53656   0.39290   0.00000  Uiso   1.00
O1677  O     0.79456   0.47537   0.10744   0.00000  Uiso   1.00
O1678  O     0.77635   0.53545   0.14772   0.00000  Uiso   1.00
O1679  O     0.78167   0.46167   0.02160   0.00000  Uiso   1.00
O1680  O     0.79389   0.51965   0.22956   0.00000  Uiso   1.00
O1681  O     0.78300   0.45858   0.76958   0.00000  Uiso   1.00
O1682  O     0.79670   0.47694   0.85497   0.00000  Uiso   1.00
O1683  O     0.79276   0.52338   0.97940   0.00000  Uiso   1.00
O1684  O     0.77932   0.53832   0.89605   0.00000  Uiso   1.00
O1685  O     0.78279   0.53646   0.64499   0.00000  Uiso   1.00
O1686  O     0.77986   0.46064   0.52145   0.00000  Uiso   1.00
O1687  O     0.79630   0.47698   0.60504   0.00000  Uiso   1.00
O1688  O     0.79705   0.52248   0.73133   0.00000  Uiso   1.00
O1689  O     0.96747   0.70612   0.09921   0.00000  Uiso   1.00
O1690  O     0.95648   0.69094   0.26676   0.00000  Uiso   1.00
O1691  O     0.96641   0.62969   0.22358   0.00000  Uiso   1.00
O1692  O     0.97092   0.70591   0.35030   0.00000  Uiso   1.00
O1693  O     0.95574   0.64147   0.39060   0.00000  Uiso   1.00
O1694  O     0.95344   0.69070   0.01256   0.00000  Uiso   1.00
O1695  O     0.96788   0.62990   0.47719   0.00000  Uiso   1.00
O1696  O     0.95012   0.64714   0.13906   0.00000  Uiso   1.00
O1697  O     0.77925   0.79660   0.02837   0.00000  Uiso   1.00
O1698  O     0.95356   0.64445   0.64195   0.00000  Uiso   1.00
O1699  O     0.77689   0.79380   0.78059   0.00000  Uiso   1.00
O1700  O     0.95183   0.69029   0.51488   0.00000  Uiso   1.00
O1701  O     0.96718   0.70367   0.60072   0.00000  Uiso   1.00
O1702  O     0.96809   0.62777   0.97600   0.00000  Uiso   1.00
O1703  O     0.95701   0.63974   0.88764   0.00000  Uiso   1.00
O1704  O     0.96952   0.70511   0.85085   0.00000  Uiso   1.00
O1705  O     0.97033   0.62884   0.72443   0.00000  Uiso   1.00
O1706  O     0.95481   0.68851   0.76847   0.00000  Uiso   1.00
O1707  O     0.77986   0.79501   0.52898   0.00000  Uiso   1.00
O1708  O     0.97237   0.96020   0.47595   0.00000  Uiso   1.00
O1709  O     0.95601   0.97566   0.39070   0.00000  Uiso   1.00
O1710  O     0.79637   0.81428   0.11206   0.00000  Uiso   1.00
O1711  O     0.97179   0.96261   0.22193   0.00000  Uiso   1.00
O1712  O     0.79576   0.85668   0.48756   0.00000  Uiso   1.00
O1713  O     0.95648   0.97801   0.13695   0.00000  Uiso   1.00
O1714  O     0.78312   0.87434   0.40183   0.00000  Uiso   1.00
O1715  O     0.78104   0.87444   0.15236   0.00000  Uiso   1.00
O1716  O     0.79284   0.86222   0.24008   0.00000  Uiso   1.00
O1717  O     0.79593   0.81230   0.36226   0.00000  Uiso   1.00
O1718  O     0.77933   0.80046   0.27650   0.00000  Uiso   1.00
O1719  O     0.97035   0.96351   0.97926   0.00000  Uiso   1.00
O1720  O     0.95669   0.97274   0.64113   0.00000  Uiso   1.00
O1721  O     0.95843   0.97269   0.89096   0.00000  Uiso   1.00
O1722  O     0.79829   0.81056   0.86284   0.00000  Uiso   1.00
O1723  O     0.78410   0.87177   0.90183   0.00000  Uiso   1.00
O1724  O     0.97263   0.95927   0.72623   0.00000  Uiso   1.00
O1725  O     0.79853   0.85610   0.98835   0.00000  Uiso   1.00
O1726  O     0.78022   0.87196   0.65550   0.00000  Uiso   1.00
O1727  O     0.79635   0.85215   0.73583   0.00000  Uiso   1.00
O1728  O     0.79661   0.81143   0.61208   0.00000  Uiso   1.00
O1729  O     0.24988   0.14457   0.43503   0.00000  Uiso   1.00
O1730  O     0.00108   0.02315   0.93528   0.00000  Uiso   1.00
O1731  O     0.00019   0.02255   0.68768   0.00000  Uiso   1.00
O1732  O     0.24889   0.18915   0.81418   0.00000  Uiso   1.00
O1733  O     0.00056   0.35397   0.43608   0.00000  Uiso   1.00
O1734  O     0.00213   0.30977   0.06371   0.00000  Uiso   1.00
O1735  O     0.00013   0.35215   0.68496   0.00000  Uiso   1.00
O1736  O     0.24754   0.47798   0.44174   0.00000  Uiso   1.00
O1737  O     0.24936   0.47599   0.19004   0.00000  Uiso   1.00
O1738  O     0.24798   0.52481   0.31412   0.00000  Uiso   1.00
O1739  O     0.24853   0.52318   0.06455   0.00000  Uiso   1.00
O1740  O     0.24786   0.47497   0.94127   0.00000  Uiso   1.00
O1741  O     0.24703   0.47802   0.68957   0.00000  Uiso   1.00
O1742  O     0.00000   0.64439   0.31032   0.00000  Uiso   1.00
O1743  O     0.00152   0.64147   0.80997   0.00000  Uiso   1.00
O1744  O     0.24760   0.81155   0.43620   0.00000  Uiso   1.00
O1745  O     0.24730   0.85937   0.06293   0.00000  Uiso   1.00
O1746  O     0.00401   0.97622   0.06228   0.00000  Uiso   1.00
O1747  O     0.24735   0.86037   0.31316   0.00000  Uiso   1.00
O1748  O     0.00168   0.97588   0.56386   0.00000  Uiso   1.00
O1749  O     0.24810   0.80687   0.68449   0.00000  Uiso   1.00
O1750  O     0.00162   0.97717   0.81157   0.00000  Uiso   1.00
O1751  O     0.24762   0.85645   0.56176   0.00000  Uiso   1.00
O1752  O     0.25122   0.19165   0.31222   0.00000  Uiso   1.00
O1753  O     0.25059   0.14299   0.18790   0.00000  Uiso   1.00
O1754  O     0.25178   0.19088   0.06321   0.00000  Uiso   1.00
O1755  O     0.25206   0.19037   0.56000   0.00000  Uiso   1.00
O1756  O     0.25034   0.14318   0.93793   0.00000  Uiso   1.00
O1757  O     0.25221   0.14435   0.68897   0.00000  Uiso   1.00
O1758  O     0.49413   0.35743   0.18813   0.00000  Uiso   1.00
O1759  O     0.49836   0.30862   0.31422   0.00000  Uiso   1.00
O1760  O     0.49971   0.35816   0.94047   0.00000  Uiso   1.00
O1761  O     0.25001   0.52527   0.81411   0.00000  Uiso   1.00
O1762  O     0.25066   0.52654   0.56534   0.00000  Uiso   1.00
O1763  O     0.49826   0.69176   0.43449   0.00000  Uiso   1.00
O1764  O     0.49905   0.64500   0.55984   0.00000  Uiso   1.00
O1765  O     0.49837   0.97788   0.31260   0.00000  Uiso   1.00
O1766  O     0.25069   0.80938   0.18945   0.00000  Uiso   1.00
O1767  O     0.25198   0.85361   0.81097   0.00000  Uiso   1.00
O1768  O     0.25065   0.80949   0.93649   0.00000  Uiso   1.00
O1769  O     0.49832   0.97628   0.56282   0.00000  Uiso   1.00
O1770  O     0.74637   0.14276   0.43579   0.00000  Uiso   1.00
O1771  O     0.50278   0.02309   0.18888   0.00000  Uiso   1.00
O1772  O     0.50048   0.02484   0.43854   0.00000  Uiso   1.00
O1773  O     0.74808   0.14404   0.18871   0.00000  Uiso   1.00
O1774  O     0.74947   0.18965   0.31349   0.00000  Uiso   1.00
O1775  O     0.50254   0.02503   0.93983   0.00000  Uiso   1.00
O1776  O     0.74965   0.14228   0.93659   0.00000  Uiso   1.00
O1777  O     0.50127   0.02027   0.68890   0.00000  Uiso   1.00
O1778  O     0.50003   0.31194   0.06531   0.00000  Uiso   1.00
O1779  O     0.50023   0.35700   0.44058   0.00000  Uiso   1.00
O1780  O     0.50075   0.31100   0.81218   0.00000  Uiso   1.00
O1781  O     0.50187   0.35939   0.68947   0.00000  Uiso   1.00
O1782  O     0.50174   0.30987   0.56649   0.00000  Uiso   1.00
O1783  O     0.74912   0.52083   0.30809   0.00000  Uiso   1.00
O1784  O     0.74763   0.52024   0.06211   0.00000  Uiso   1.00
O1785  O     0.74898   0.47496   0.43382   0.00000  Uiso   1.00
O1786  O     0.74980   0.47324   0.93438   0.00000  Uiso   1.00
O1787  O     0.50501   0.64530   0.06241   0.00000  Uiso   1.00
O1788  O     0.50296   0.64354   0.30879   0.00000  Uiso   1.00
O1789  O     0.50026   0.69137   0.18598   0.00000  Uiso   1.00
O1790  O     0.50107   0.64374   0.81290   0.00000  Uiso   1.00
O1791  O     0.50193   0.68981   0.68452   0.00000  Uiso   1.00
O1792  O     0.50316   0.69052   0.93838   0.00000  Uiso   1.00
O1793  O     0.50112   0.97700   0.06232   0.00000  Uiso   1.00
O1794  O     0.74759   0.86078   0.31683   0.00000  Uiso   1.00
O1795  O     0.74999   0.81437   0.19006   0.00000  Uiso   1.00
O1796  O     0.74998   0.85837   0.56862   0.00000  Uiso   1.00
O1797  O     0.50199   0.97705   0.81522   0.00000  Uiso   1.00
O1798  O     0.75131   0.19041   0.06459   0.00000  Uiso   1.00
O1799  O     0.99836   0.02491   0.18659   0.00000  Uiso   1.00
O1800  O     0.99775   0.02368   0.43598   0.00000  Uiso   1.00
O1801  O     0.75236   0.18943   0.81140   0.00000  Uiso   1.00
O1802  O     0.75147   0.18896   0.56188   0.00000  Uiso   1.00
O1803  O     0.75045   0.14330   0.68546   0.00000  Uiso   1.00
O1804  O     0.99557   0.35717   0.18777   0.00000  Uiso   1.00
O1805  O     0.99866   0.30889   0.30950   0.00000  Uiso   1.00
O1806  O     0.99539   0.30667   0.55993   0.00000  Uiso   1.00
O1807  O     0.99897   0.30676   0.81334   0.00000  Uiso   1.00
O1808  O     0.99854   0.35543   0.93600   0.00000  Uiso   1.00
O1809  O     0.75140   0.47150   0.18456   0.00000  Uiso   1.00
O1810  O     0.75405   0.52272   0.80925   0.00000  Uiso   1.00
O1811  O     0.75266   0.47501   0.68532   0.00000  Uiso   1.00
O1812  O     0.75159   0.52353   0.55906   0.00000  Uiso   1.00
O1813  O     0.99880   0.69034   0.43770   0.00000  Uiso   1.00
O1814  O     0.99741   0.64380   0.06224   0.00000  Uiso   1.00
O1815  O     0.99789   0.69147   0.18549   0.00000  Uiso   1.00
O1816  O     0.99848   0.69018   0.68588   0.00000  Uiso   1.00
O1817  O     0.99601   0.64273   0.56050   0.00000  Uiso   1.00
O1818  O     0.99794   0.68989   0.93424   0.00000  Uiso   1.00
O1819  O     0.75318   0.86022   0.06578   0.00000  Uiso   1.00
O1820  O     0.75283   0.81152   0.43993   0.00000  Uiso   1.00
O1821  O     0.99945   0.97549   0.31010   0.00000  Uiso   1.00
O1822  O     0.75335   0.85678   0.81829   0.00000  Uiso   1.00
O1823  O     0.75270   0.81211   0.94247   0.00000  Uiso   1.00
O1824  O     0.75099   0.80979   0.69193   0.00000  Uiso   1.00
