data_final_Cl-Cu-SABVOH01
_audit_creation_date              2022-12-15
_audit_creation_method            'Materials Studio'
_symmetry_space_group_name_H-M    'P1'
_symmetry_Int_Tables_number       1
_symmetry_cell_setting            triclinic
loop_
_symmetry_equiv_pos_as_xyz
  x,y,z
_cell_length_a                    34.5085
_cell_length_b                    37.2945
_cell_length_c                    26.7017
_cell_angle_alpha                 90.0000
_cell_angle_beta                  90.0000
_cell_angle_gamma                 90.0000
loop_
_atom_site_label
_atom_site_type_symbol
_atom_site_fract_x
_atom_site_fract_y
_atom_site_fract_z
_atom_site_U_iso_or_equiv
_atom_site_adp_type
_atom_site_occupancy
Cu1    Cu    0.00084   0.00301   0.22971   0.00000  Uiso   1.00
Cu2    Cu    0.00364   0.00044   0.48097   0.00000  Uiso   1.00
Cu3    Cu    0.00021   0.00090   0.98094   0.00000  Uiso   1.00
Cu4    Cu    0.00430   0.00035   0.85499   0.00000  Uiso   1.00
Cu5    Cu    0.00138   0.33164   0.23167   0.00000  Uiso   1.00
Cu6    Cu    0.00297   0.33171   0.10936   0.00000  Uiso   1.00
Cu7    Cu    0.00309   0.33824   0.48082   0.00000  Uiso   1.00
Cu8    Cu    0.00296   0.32760   0.35812   0.00000  Uiso   1.00
Cu9    Cu    0.00254   0.33002   0.85717   0.00000  Uiso   1.00
Cu10   Cu    0.00060   0.33168   0.73003   0.00000  Uiso   1.00
Cu11   Cu    0.00394   0.33181   0.60509   0.00000  Uiso   1.00
Cu12   Cu    0.00001   0.33233   0.98533   0.00000  Uiso   1.00
Cu13   Cu    0.00327   0.66769   0.35546   0.00000  Uiso   1.00
Cu14   Cu    0.00204   0.66888   0.47976   0.00000  Uiso   1.00
Cu15   Cu    0.00320   0.66788   0.22867   0.00000  Uiso   1.00
Cu16   Cu    0.00352   0.66603   0.10563   0.00000  Uiso   1.00
Cu17   Cu    0.00675   0.66647   0.60882   0.00000  Uiso   1.00
Cu18   Cu    0.00319   0.66213   0.86073   0.00000  Uiso   1.00
Cu19   Cu    0.00359   0.66233   0.73218   0.00000  Uiso   1.00
Cu20   Cu    0.00354   0.66961   0.98501   0.00000  Uiso   1.00
Cu21   Cu    0.00234   0.99943   0.10631   0.00000  Uiso   1.00
Cu22   Cu    0.00469   0.99839   0.35223   0.00000  Uiso   1.00
Cu23   Cu    0.00298   0.99971   0.60433   0.00000  Uiso   1.00
Cu24   Cu    0.00274   0.99858   0.73204   0.00000  Uiso   1.00
Cu25   Cu    0.25195   0.16782   0.10901   0.00000  Uiso   1.00
Cu26   Cu    0.25129   0.16547   0.23248   0.00000  Uiso   1.00
Cu27   Cu    0.25366   0.16809   0.35730   0.00000  Uiso   1.00
Cu28   Cu    0.25252   0.16669   0.48657   0.00000  Uiso   1.00
Cu29   Cu    0.25117   0.16800   0.85907   0.00000  Uiso   1.00
Cu30   Cu    0.25190   0.16686   0.98385   0.00000  Uiso   1.00
Cu31   Cu    0.25269   0.16624   0.61043   0.00000  Uiso   1.00
Cu32   Cu    0.25100   0.16862   0.73460   0.00000  Uiso   1.00
Cu33   Cu    0.49999   0.32474   0.10368   0.00000  Uiso   1.00
Cu34   Cu    0.49961   0.33245   0.97879   0.00000  Uiso   1.00
Cu35   Cu    0.25393   0.49866   0.10577   0.00000  Uiso   1.00
Cu36   Cu    0.25242   0.50178   0.35667   0.00000  Uiso   1.00
Cu37   Cu    0.25133   0.50149   0.23236   0.00000  Uiso   1.00
Cu38   Cu    0.25259   0.49888   0.48140   0.00000  Uiso   1.00
Cu39   Cu    0.25091   0.49500   0.73052   0.00000  Uiso   1.00
Cu40   Cu    0.25125   0.49273   0.98065   0.00000  Uiso   1.00
Cu41   Cu    0.25331   0.50077   0.85723   0.00000  Uiso   1.00
Cu42   Cu    0.25559   0.50064   0.60619   0.00000  Uiso   1.00
Cu43   Cu    0.49865   0.66745   0.73362   0.00000  Uiso   1.00
Cu44   Cu    0.49978   0.66277   0.85969   0.00000  Uiso   1.00
Cu45   Cu    0.25637   0.83644   0.48404   0.00000  Uiso   1.00
Cu46   Cu    0.25380   0.83399   0.23453   0.00000  Uiso   1.00
Cu47   Cu    0.25296   0.83682   0.11110   0.00000  Uiso   1.00
Cu48   Cu    0.25381   0.83406   0.36161   0.00000  Uiso   1.00
Cu49   Cu    0.25249   0.83536   0.85768   0.00000  Uiso   1.00
Cu50   Cu    0.25433   0.83991   0.60778   0.00000  Uiso   1.00
Cu51   Cu    0.25084   0.83615   0.98477   0.00000  Uiso   1.00
Cu52   Cu    0.25266   0.83147   0.73302   0.00000  Uiso   1.00
Cu53   Cu    0.50208   0.00164   0.48489   0.00000  Uiso   1.00
Cu54   Cu    0.50272   0.00135   0.98290   0.00000  Uiso   1.00
Cu55   Cu    0.50182   0.33750   0.22914   0.00000  Uiso   1.00
Cu56   Cu    0.50162   0.33398   0.47772   0.00000  Uiso   1.00
Cu57   Cu    0.50369   0.33046   0.35275   0.00000  Uiso   1.00
Cu58   Cu    0.50068   0.33754   0.73012   0.00000  Uiso   1.00
Cu59   Cu    0.50183   0.33073   0.60740   0.00000  Uiso   1.00
Cu60   Cu    0.50095   0.32919   0.85449   0.00000  Uiso   1.00
Cu61   Cu    0.74994   0.49952   0.99155   0.00000  Uiso   1.00
Cu62   Cu    0.50244   0.66757   0.36198   0.00000  Uiso   1.00
Cu63   Cu    0.50096   0.66841   0.23456   0.00000  Uiso   1.00
Cu64   Cu    0.50077   0.66737   0.48828   0.00000  Uiso   1.00
Cu65   Cu    0.50488   0.66867   0.10819   0.00000  Uiso   1.00
Cu66   Cu    0.50192   0.66708   0.98568   0.00000  Uiso   1.00
Cu67   Cu    0.50131   0.66311   0.60966   0.00000  Uiso   1.00
Cu68   Cu    0.50261   0.99781   0.23259   0.00000  Uiso   1.00
Cu69   Cu    0.50620   0.99840   0.35977   0.00000  Uiso   1.00
Cu70   Cu    0.50215   0.99967   0.10799   0.00000  Uiso   1.00
Cu71   Cu    0.50248   0.99977   0.73124   0.00000  Uiso   1.00
Cu72   Cu    0.50244   0.99612   0.85883   0.00000  Uiso   1.00
Cu73   Cu    0.50181   0.99457   0.60835   0.00000  Uiso   1.00
Cu74   Cu    0.75056   0.16437   0.48242   0.00000  Uiso   1.00
Cu75   Cu    0.75196   0.16971   0.10625   0.00000  Uiso   1.00
Cu76   Cu    0.75214   0.16974   0.23192   0.00000  Uiso   1.00
Cu77   Cu    0.75499   0.16944   0.35666   0.00000  Uiso   1.00
Cu78   Cu    0.75418   0.16752   0.73457   0.00000  Uiso   1.00
Cu79   Cu    0.75354   0.16875   0.60792   0.00000  Uiso   1.00
Cu80   Cu    0.75063   0.16517   0.98101   0.00000  Uiso   1.00
Cu81   Cu    0.75449   0.17004   0.85724   0.00000  Uiso   1.00
Cu82   Cu    0.75191   0.49921   0.48809   0.00000  Uiso   1.00
Cu83   Cu    0.75225   0.49878   0.11541   0.00000  Uiso   1.00
Cu84   Cu    0.75153   0.50039   0.23934   0.00000  Uiso   1.00
Cu85   Cu    0.75036   0.49807   0.36336   0.00000  Uiso   1.00
Cu86   Cu    0.75462   0.50415   0.61469   0.00000  Uiso   1.00
Cu87   Cu    0.75362   0.50267   0.74055   0.00000  Uiso   1.00
Cu88   Cu    0.75470   0.50080   0.86534   0.00000  Uiso   1.00
Cu89   Cu    0.75333   0.83415   0.23589   0.00000  Uiso   1.00
Cu90   Cu    0.75401   0.83021   0.48395   0.00000  Uiso   1.00
Cu91   Cu    0.75117   0.82862   0.10972   0.00000  Uiso   1.00
Cu92   Cu    0.75144   0.83053   0.35930   0.00000  Uiso   1.00
Cu93   Cu    0.75522   0.83086   0.61032   0.00000  Uiso   1.00
Cu94   Cu    0.75166   0.82954   0.73369   0.00000  Uiso   1.00
Cu95   Cu    0.75219   0.83174   0.86212   0.00000  Uiso   1.00
Cu96   Cu    0.75312   0.83357   0.98646   0.00000  Uiso   1.00
Cl97   Cl    0.11046   0.03676   0.19420   0.00000  Uiso   1.00
Cl98   Cl    0.10453   0.04860   0.44269   0.00000  Uiso   1.00
Cl99   Cl    0.13916   0.19158   0.32647   0.00000  Uiso   1.00
Cl100  Cl    0.13535   0.19344   0.06963   0.00000  Uiso   1.00
Cl101  Cl    0.12973   0.19121   0.82559   0.00000  Uiso   1.00
Cl102  Cl    0.10745   0.03813   0.69743   0.00000  Uiso   1.00
Cl103  Cl    0.11426   0.03241   0.95250   0.00000  Uiso   1.00
Cl104  Cl    0.13801   0.19678   0.56981   0.00000  Uiso   1.00
Cl105  Cl    0.10665   0.36401   0.19813   0.00000  Uiso   1.00
Cl106  Cl    0.12006   0.35439   0.45774   0.00000  Uiso   1.00
Cl107  Cl    0.11759   0.35887   0.70081   0.00000  Uiso   1.00
Cl108  Cl    0.10924   0.36581   0.95001   0.00000  Uiso   1.00
Cl109  Cl    0.12705   0.51774   0.08128   0.00000  Uiso   1.00
Cl110  Cl    0.13350   0.52648   0.31984   0.00000  Uiso   1.00
Cl111  Cl    0.13643   0.52711   0.56500   0.00000  Uiso   1.00
Cl112  Cl    0.13027   0.51954   0.83261   0.00000  Uiso   1.00
Cl113  Cl    0.11639   0.69484   0.20298   0.00000  Uiso   1.00
Cl114  Cl    0.11759   0.70687   0.44850   0.00000  Uiso   1.00
Cl115  Cl    0.11163   0.69986   0.69693   0.00000  Uiso   1.00
Cl116  Cl    0.11596   0.69914   0.96212   0.00000  Uiso   1.00
Cl117  Cl    0.14346   0.87597   0.07001   0.00000  Uiso   1.00
Cl118  Cl    0.13254   0.85551   0.33122   0.00000  Uiso   1.00
Cl119  Cl    0.14038   0.86789   0.56990   0.00000  Uiso   1.00
Cl120  Cl    0.12975   0.85153   0.83568   0.00000  Uiso   1.00
Cl121  Cl    0.36198   0.13124   0.20462   0.00000  Uiso   1.00
Cl122  Cl    0.36586   0.13517   0.45580   0.00000  Uiso   1.00
Cl123  Cl    0.36456   0.13633   0.70763   0.00000  Uiso   1.00
Cl124  Cl    0.36607   0.13782   0.95349   0.00000  Uiso   1.00
Cl125  Cl    0.38840   0.30831   0.07198   0.00000  Uiso   1.00
Cl126  Cl    0.37753   0.31303   0.33062   0.00000  Uiso   1.00
Cl127  Cl    0.38053   0.31054   0.57997   0.00000  Uiso   1.00
Cl128  Cl    0.38861   0.30171   0.81641   0.00000  Uiso   1.00
Cl129  Cl    0.36412   0.47411   0.20148   0.00000  Uiso   1.00
Cl130  Cl    0.36590   0.47675   0.45713   0.00000  Uiso   1.00
Cl131  Cl    0.36630   0.47334   0.70828   0.00000  Uiso   1.00
Cl132  Cl    0.36285   0.46582   0.94542   0.00000  Uiso   1.00
Cl133  Cl    0.37866   0.65198   0.08213   0.00000  Uiso   1.00
Cl134  Cl    0.38713   0.63318   0.32151   0.00000  Uiso   1.00
Cl135  Cl    0.38237   0.63972   0.58242   0.00000  Uiso   1.00
Cl136  Cl    0.38705   0.63517   0.82877   0.00000  Uiso   1.00
Cl137  Cl    0.36175   0.79444   0.94225   0.00000  Uiso   1.00
Cl138  Cl    0.38033   0.97922   0.07861   0.00000  Uiso   1.00
Cl139  Cl    0.39034   0.97215   0.31767   0.00000  Uiso   1.00
Cl140  Cl    0.36525   0.80207   0.45338   0.00000  Uiso   1.00
Cl141  Cl    0.36458   0.80549   0.21032   0.00000  Uiso   1.00
Cl142  Cl    0.38971   0.96783   0.57275   0.00000  Uiso   1.00
Cl143  Cl    0.39324   0.96958   0.82166   0.00000  Uiso   1.00
Cl144  Cl    0.37419   0.81604   0.71861   0.00000  Uiso   1.00
Cl145  Cl    0.60748   0.04272   0.19499   0.00000  Uiso   1.00
Cl146  Cl    0.60240   0.04383   0.44801   0.00000  Uiso   1.00
Cl147  Cl    0.63620   0.19693   0.31970   0.00000  Uiso   1.00
Cl148  Cl    0.64020   0.19365   0.08018   0.00000  Uiso   1.00
Cl149  Cl    0.61787   0.02517   0.70924   0.00000  Uiso   1.00
Cl150  Cl    0.61135   0.03841   0.95263   0.00000  Uiso   1.00
Cl151  Cl    0.63738   0.19809   0.81918   0.00000  Uiso   1.00
Cl152  Cl    0.63733   0.19503   0.57635   0.00000  Uiso   1.00
Cl153  Cl    0.61258   0.37524   0.19234   0.00000  Uiso   1.00
Cl154  Cl    0.62368   0.35700   0.45674   0.00000  Uiso   1.00
Cl155  Cl    0.61232   0.36657   0.70629   0.00000  Uiso   1.00
Cl156  Cl    0.62099   0.35133   0.96015   0.00000  Uiso   1.00
Cl157  Cl    0.63717   0.52845   0.07879   0.00000  Uiso   1.00
Cl158  Cl    0.63108   0.52024   0.33604   0.00000  Uiso   1.00
Cl159  Cl    0.63126   0.52169   0.58424   0.00000  Uiso   1.00
Cl160  Cl    0.63959   0.52992   0.82624   0.00000  Uiso   1.00
Cl161  Cl    0.57245   0.76112   0.19948   0.00000  Uiso   1.00
Cl162  Cl    0.56647   0.76455   0.45497   0.00000  Uiso   1.00
Cl163  Cl    0.56336   0.76421   0.70992   0.00000  Uiso   1.00
Cl164  Cl    0.56251   0.77072   0.95564   0.00000  Uiso   1.00
Cl165  Cl    0.63355   0.84903   0.08412   0.00000  Uiso   1.00
Cl166  Cl    0.63104   0.85881   0.33240   0.00000  Uiso   1.00
Cl167  Cl    0.63228   0.85499   0.57432   0.00000  Uiso   1.00
Cl168  Cl    0.62814   0.85051   0.84289   0.00000  Uiso   1.00
Cl169  Cl    0.87552   0.14807   0.21238   0.00000  Uiso   1.00
Cl170  Cl    0.85917   0.12192   0.44720   0.00000  Uiso   1.00
Cl171  Cl    0.86206   0.13212   0.69685   0.00000  Uiso   1.00
Cl172  Cl    0.86589   0.14010   0.95350   0.00000  Uiso   1.00
Cl173  Cl    0.88462   0.30905   0.07125   0.00000  Uiso   1.00
Cl174  Cl    0.88441   0.31023   0.33295   0.00000  Uiso   1.00
Cl175  Cl    0.88580   0.31259   0.58141   0.00000  Uiso   1.00
Cl176  Cl    0.88474   0.30642   0.82380   0.00000  Uiso   1.00
Cl177  Cl    0.86212   0.46800   0.19922   0.00000  Uiso   1.00
Cl178  Cl    0.86488   0.47446   0.45455   0.00000  Uiso   1.00
Cl179  Cl    0.86655   0.47067   0.70716   0.00000  Uiso   1.00
Cl180  Cl    0.86793   0.47474   0.96354   0.00000  Uiso   1.00
Cl181  Cl    0.88028   0.64995   0.08768   0.00000  Uiso   1.00
Cl182  Cl    0.88968   0.63289   0.32226   0.00000  Uiso   1.00
Cl183  Cl    0.82131   0.73298   0.45108   0.00000  Uiso   1.00
Cl184  Cl    0.81142   0.73155   0.21261   0.00000  Uiso   1.00
Cl185  Cl    0.89054   0.63844   0.57084   0.00000  Uiso   1.00
Cl186  Cl    0.88179   0.64709   0.84384   0.00000  Uiso   1.00
Cl187  Cl    0.82188   0.73889   0.95508   0.00000  Uiso   1.00
Cl188  Cl    0.81891   0.73183   0.71110   0.00000  Uiso   1.00
Cl189  Cl    0.88267   0.97178   0.07001   0.00000  Uiso   1.00
Cl190  Cl    0.88349   0.97818   0.32629   0.00000  Uiso   1.00
Cl191  Cl    0.88403   0.96912   0.57494   0.00000  Uiso   1.00
Cl192  Cl    0.88937   0.97286   0.82165   0.00000  Uiso   1.00
H193   H     0.08013   0.08848   0.11322   0.00000  Uiso   1.00
H194   H     0.14378   0.12044   0.11911   0.00000  Uiso   1.00
H195   H     0.17401   0.08045   0.22668   0.00000  Uiso   1.00
H196   H     0.08042   0.08738   0.36341   0.00000  Uiso   1.00
H197   H     0.14216   0.11685   0.37199   0.00000  Uiso   1.00
H198   H     0.16854   0.08411   0.47382   0.00000  Uiso   1.00
H199   H     0.23885   0.11911   0.17222   0.00000  Uiso   1.00
H200   H     0.24657   0.11981   0.41793   0.00000  Uiso   1.00
H201   H     0.07654   0.09602   0.61562   0.00000  Uiso   1.00
H202   H     0.14370   0.12321   0.62035   0.00000  Uiso   1.00
H203   H     0.17212   0.08154   0.72137   0.00000  Uiso   1.00
H204   H     0.09081   0.08031   0.87460   0.00000  Uiso   1.00
H205   H     0.15294   0.11360   0.87567   0.00000  Uiso   1.00
H206   H     0.17833   0.07363   0.97724   0.00000  Uiso   1.00
H207   H     0.24866   0.11876   0.92199   0.00000  Uiso   1.00
H208   H     0.00426   0.04292   0.67012   0.00000  Uiso   1.00
H209   H     0.00088   0.04751   0.91853   0.00000  Uiso   1.00
H210   H     0.23726   0.21376   0.04287   0.00000  Uiso   1.00
H211   H     0.07512   0.24290   0.09368   0.00000  Uiso   1.00
H212   H     0.15355   0.23264   0.24649   0.00000  Uiso   1.00
H213   H     0.09306   0.26408   0.24972   0.00000  Uiso   1.00
H214   H     0.07852   0.23738   0.34859   0.00000  Uiso   1.00
H215   H     0.23968   0.20950   0.29258   0.00000  Uiso   1.00
H216   H     0.16065   0.24310   0.49730   0.00000  Uiso   1.00
H217   H     0.18511   0.39967   0.47921   0.00000  Uiso   1.00
H218   H     0.10044   0.27094   0.99955   0.00000  Uiso   1.00
H219   H     0.07433   0.24133   0.59406   0.00000  Uiso   1.00
H220   H     0.15548   0.23372   0.74872   0.00000  Uiso   1.00
H221   H     0.09454   0.26744   0.74748   0.00000  Uiso   1.00
H222   H     0.07028   0.23644   0.85308   0.00000  Uiso   1.00
H223   H     0.16056   0.24236   0.99398   0.00000  Uiso   1.00
H224   H     0.23836   0.21509   0.79534   0.00000  Uiso   1.00
H225   H     0.24477   0.21364   0.54461   0.00000  Uiso   1.00
H226   H     0.17500   0.39971   0.97309   0.00000  Uiso   1.00
H227   H     0.09831   0.27227   0.50271   0.00000  Uiso   1.00
H228   H     0.18414   0.39725   0.73241   0.00000  Uiso   1.00
H229   H     0.05989   0.55816   0.11026   0.00000  Uiso   1.00
H230   H     0.14873   0.44585   0.11863   0.00000  Uiso   1.00
H231   H     0.08583   0.41886   0.11700   0.00000  Uiso   1.00
H232   H     0.07569   0.57192   0.34509   0.00000  Uiso   1.00
H233   H     0.15004   0.44509   0.36942   0.00000  Uiso   1.00
H234   H     0.16553   0.41874   0.21651   0.00000  Uiso   1.00
H235   H     0.16039   0.56780   0.00034   0.00000  Uiso   1.00
H236   H     0.23513   0.54280   0.03520   0.00000  Uiso   1.00
H237   H     0.16071   0.57208   0.49060   0.00000  Uiso   1.00
H238   H     0.16566   0.58004   0.23699   0.00000  Uiso   1.00
H239   H     0.08864   0.40971   0.37496   0.00000  Uiso   1.00
H240   H     0.24845   0.55058   0.29294   0.00000  Uiso   1.00
H241   H     0.07395   0.56803   0.59382   0.00000  Uiso   1.00
H242   H     0.14427   0.45677   0.61164   0.00000  Uiso   1.00
H243   H     0.08791   0.42210   0.61174   0.00000  Uiso   1.00
H244   H     0.07403   0.56670   0.85583   0.00000  Uiso   1.00
H245   H     0.14525   0.44661   0.86875   0.00000  Uiso   1.00
H246   H     0.08728   0.41048   0.86630   0.00000  Uiso   1.00
H247   H     0.24510   0.54694   0.53952   0.00000  Uiso   1.00
H248   H     0.15880   0.56274   0.74176   0.00000  Uiso   1.00
H249   H     0.09993   0.59854   0.74441   0.00000  Uiso   1.00
H250   H     0.23325   0.54242   0.79198   0.00000  Uiso   1.00
H251   H     0.08195   0.75784   0.12137   0.00000  Uiso   1.00
H252   H     0.14866   0.77665   0.36907   0.00000  Uiso   1.00
H253   H     0.18125   0.74085   0.22481   0.00000  Uiso   1.00
H254   H     0.08612   0.75073   0.36781   0.00000  Uiso   1.00
H255   H     0.24985   0.78855   0.16773   0.00000  Uiso   1.00
H256   H     0.10252   0.60844   0.24233   0.00000  Uiso   1.00
H257   H     0.17167   0.75979   0.47108   0.00000  Uiso   1.00
H258   H     0.14460   0.79302   0.12303   0.00000  Uiso   1.00
H259   H     0.09803   0.60272   0.49733   0.00000  Uiso   1.00
H260   H     0.00910   0.71157   0.16640   0.00000  Uiso   1.00
H261   H     0.09826   0.60106   0.00516   0.00000  Uiso   1.00
H262   H     0.17836   0.74121   0.98741   0.00000  Uiso   1.00
H263   H     0.08793   0.74619   0.61868   0.00000  Uiso   1.00
H264   H     0.24796   0.78820   0.92289   0.00000  Uiso   1.00
H265   H     0.17331   0.74559   0.72043   0.00000  Uiso   1.00
H266   H     0.09347   0.73652   0.87142   0.00000  Uiso   1.00
H267   H     0.24961   0.79038   0.66674   0.00000  Uiso   1.00
H268   H     0.15145   0.77291   0.87449   0.00000  Uiso   1.00
H269   H     0.14479   0.78901   0.62537   0.00000  Uiso   1.00
H270   H     0.01272   0.71134   0.92100   0.00000  Uiso   1.00
H271   H     0.07755   0.91003   0.09807   0.00000  Uiso   1.00
H272   H     0.15461   0.90339   0.24940   0.00000  Uiso   1.00
H273   H     0.09433   0.93625   0.25577   0.00000  Uiso   1.00
H274   H     0.07681   0.90106   0.34578   0.00000  Uiso   1.00
H275   H     0.24853   0.87860   0.30037   0.00000  Uiso   1.00
H276   H     0.11048   0.95195   0.48736   0.00000  Uiso   1.00
H277   H     0.17010   0.92012   0.48691   0.00000  Uiso   1.00
H278   H     0.23631   0.88233   0.04934   0.00000  Uiso   1.00
H279   H     0.07980   0.91109   0.58994   0.00000  Uiso   1.00
H280   H     0.14566   0.89285   0.75138   0.00000  Uiso   1.00
H281   H     0.08719   0.92526   0.75176   0.00000  Uiso   1.00
H282   H     0.06678   0.89636   0.85393   0.00000  Uiso   1.00
H283   H     0.10327   0.95424   0.98807   0.00000  Uiso   1.00
H284   H     0.23335   0.87469   0.79437   0.00000  Uiso   1.00
H285   H     0.16475   0.91802   0.98918   0.00000  Uiso   1.00
H286   H     0.24965   0.88378   0.54642   0.00000  Uiso   1.00
H287   H     0.42393   0.08508   0.22349   0.00000  Uiso   1.00
H288   H     0.33503   0.08137   0.11411   0.00000  Uiso   1.00
H289   H     0.39667   0.05416   0.12090   0.00000  Uiso   1.00
H290   H     0.33394   0.07564   0.36947   0.00000  Uiso   1.00
H291   H     0.39810   0.05259   0.37255   0.00000  Uiso   1.00
H292   H     0.42496   0.08798   0.47842   0.00000  Uiso   1.00
H293   H     0.49316   0.04051   0.17049   0.00000  Uiso   1.00
H294   H     0.42317   0.08720   0.72714   0.00000  Uiso   1.00
H295   H     0.33326   0.08576   0.62066   0.00000  Uiso   1.00
H296   H     0.39018   0.05046   0.62653   0.00000  Uiso   1.00
H297   H     0.42372   0.09040   0.97022   0.00000  Uiso   1.00
H298   H     0.32958   0.07953   0.86905   0.00000  Uiso   1.00
H299   H     0.39479   0.04970   0.87468   0.00000  Uiso   1.00
H300   H     0.49099   0.03723   0.67151   0.00000  Uiso   1.00
H301   H     0.49333   0.04305   0.91640   0.00000  Uiso   1.00
H302   H     0.25618   0.12267   0.67864   0.00000  Uiso   1.00
H303   H     0.40705   0.26112   0.24620   0.00000  Uiso   1.00
H304   H     0.40980   0.26397   0.49852   0.00000  Uiso   1.00
H305   H     0.49229   0.37519   0.15987   0.00000  Uiso   1.00
H306   H     0.32391   0.25837   0.09901   0.00000  Uiso   1.00
H307   H     0.34629   0.23267   0.24668   0.00000  Uiso   1.00
H308   H     0.32366   0.26324   0.35163   0.00000  Uiso   1.00
H309   H     0.40494   0.38705   0.11578   0.00000  Uiso   1.00
H310   H     0.47154   0.29300   0.03661   0.00000  Uiso   1.00
H311   H     0.39755   0.39359   0.37349   0.00000  Uiso   1.00
H312   H     0.48058   0.29169   0.28648   0.00000  Uiso   1.00
H313   H     0.49194   0.37485   0.41009   0.00000  Uiso   1.00
H314   H     0.41452   0.25037   0.73900   0.00000  Uiso   1.00
H315   H     0.49048   0.28697   0.78582   0.00000  Uiso   1.00
H316   H     0.31846   0.26386   0.59867   0.00000  Uiso   1.00
H317   H     0.49581   0.37599   0.91186   0.00000  Uiso   1.00
H318   H     0.39146   0.37727   0.86878   0.00000  Uiso   1.00
H319   H     0.32242   0.25427   0.84164   0.00000  Uiso   1.00
H320   H     0.40706   0.26440   0.99296   0.00000  Uiso   1.00
H321   H     0.34970   0.22280   0.74440   0.00000  Uiso   1.00
H322   H     0.39680   0.37953   0.61745   0.00000  Uiso   1.00
H323   H     0.48503   0.29219   0.53864   0.00000  Uiso   1.00
H324   H     0.35003   0.22813   0.50333   0.00000  Uiso   1.00
H325   H     0.35146   0.22685   0.99351   0.00000  Uiso   1.00
H326   H     0.49955   0.38401   0.66522   0.00000  Uiso   1.00
H327   H     0.35519   0.55175   0.49549   0.00000  Uiso   1.00
H328   H     0.35855   0.55300   0.23679   0.00000  Uiso   1.00
H329   H     0.25384   0.45376   0.17407   0.00000  Uiso   1.00
H330   H     0.43127   0.43436   0.23016   0.00000  Uiso   1.00
H331   H     0.34008   0.41698   0.11598   0.00000  Uiso   1.00
H332   H     0.41526   0.58807   0.49337   0.00000  Uiso   1.00
H333   H     0.41258   0.58768   0.00167   0.00000  Uiso   1.00
H334   H     0.43041   0.43086   0.47709   0.00000  Uiso   1.00
H335   H     0.33635   0.42675   0.36883   0.00000  Uiso   1.00
H336   H     0.25444   0.45365   0.41721   0.00000  Uiso   1.00
H337   H     0.32924   0.59040   0.34388   0.00000  Uiso   1.00
H338   H     0.41846   0.58422   0.23048   0.00000  Uiso   1.00
H339   H     0.34578   0.55957   0.00391   0.00000  Uiso   1.00
H340   H     0.25652   0.44913   0.91230   0.00000  Uiso   1.00
H341   H     0.35432   0.55158   0.74974   0.00000  Uiso   1.00
H342   H     0.33448   0.41253   0.61329   0.00000  Uiso   1.00
H343   H     0.33130   0.41150   0.86572   0.00000  Uiso   1.00
H344   H     0.25394   0.45304   0.66823   0.00000  Uiso   1.00
H345   H     0.42612   0.41741   0.96760   0.00000  Uiso   1.00
H346   H     0.42843   0.42523   0.72816   0.00000  Uiso   1.00
H347   H     0.41170   0.58989   0.75033   0.00000  Uiso   1.00
H348   H     0.31997   0.59234   0.60514   0.00000  Uiso   1.00
H349   H     0.32306   0.59586   0.85538   0.00000  Uiso   1.00
H350   H     0.25018   0.79003   0.42788   0.00000  Uiso   1.00
H351   H     0.42937   0.76177   0.23156   0.00000  Uiso   1.00
H352   H     0.33859   0.76561   0.12217   0.00000  Uiso   1.00
H353   H     0.39795   0.72511   0.12271   0.00000  Uiso   1.00
H354   H     0.32925   0.73905   0.36571   0.00000  Uiso   1.00
H355   H     0.39358   0.70780   0.36693   0.00000  Uiso   1.00
H356   H     0.48704   0.62683   0.04763   0.00000  Uiso   1.00
H357   H     0.42172   0.75335   0.47554   0.00000  Uiso   1.00
H358   H     0.31687   0.60496   0.10076   0.00000  Uiso   1.00
H359   H     0.48919   0.62439   0.29819   0.00000  Uiso   1.00
H360   H     0.43203   0.76508   0.73370   0.00000  Uiso   1.00
H361   H     0.33451   0.75617   0.62006   0.00000  Uiso   1.00
H362   H     0.39399   0.71615   0.62248   0.00000  Uiso   1.00
H363   H     0.32832   0.74185   0.85921   0.00000  Uiso   1.00
H364   H     0.38592   0.70490   0.86107   0.00000  Uiso   1.00
H365   H     0.42176   0.74992   0.97121   0.00000  Uiso   1.00
H366   H     0.48472   0.61842   0.79574   0.00000  Uiso   1.00
H367   H     0.49682   0.70822   0.91505   0.00000  Uiso   1.00
H368   H     0.49104   0.62075   0.54487   0.00000  Uiso   1.00
H369   H     0.49386   0.71196   0.66915   0.00000  Uiso   1.00
H370   H     0.41310   0.91665   0.23927   0.00000  Uiso   1.00
H371   H     0.35330   0.89286   0.24992   0.00000  Uiso   1.00
H372   H     0.31594   0.93305   0.10125   0.00000  Uiso   1.00
H373   H     0.32524   0.93244   0.34439   0.00000  Uiso   1.00
H374   H     0.35502   0.89204   0.49406   0.00000  Uiso   1.00
H375   H     0.48777   0.95724   0.04484   0.00000  Uiso   1.00
H376   H     0.41967   0.91882   0.48500   0.00000  Uiso   1.00
H377   H     0.40962   0.92877   0.00005   0.00000  Uiso   1.00
H378   H     0.48039   0.95604   0.79582   0.00000  Uiso   1.00
H379   H     0.41262   0.92104   0.74425   0.00000  Uiso   1.00
H380   H     0.35052   0.89518   0.75605   0.00000  Uiso   1.00
H381   H     0.32087   0.93206   0.60422   0.00000  Uiso   1.00
H382   H     0.48708   0.95748   0.54227   0.00000  Uiso   1.00
H383   H     0.32413   0.92939   0.84615   0.00000  Uiso   1.00
H384   H     0.34918   0.89824   0.99931   0.00000  Uiso   1.00
H385   H     0.66492   0.09063   0.47142   0.00000  Uiso   1.00
H386   H     0.57916   0.09121   0.11401   0.00000  Uiso   1.00
H387   H     0.64456   0.11902   0.12935   0.00000  Uiso   1.00
H388   H     0.66575   0.09307   0.21565   0.00000  Uiso   1.00
H389   H     0.58322   0.08684   0.36291   0.00000  Uiso   1.00
H390   H     0.64663   0.11928   0.36801   0.00000  Uiso   1.00
H391   H     0.74817   0.12259   0.41907   0.00000  Uiso   1.00
H392   H     0.50362   0.04940   0.42383   0.00000  Uiso   1.00
H393   H     0.74459   0.12459   0.16406   0.00000  Uiso   1.00
H394   H     0.59385   0.06926   0.62947   0.00000  Uiso   1.00
H395   H     0.65630   0.10110   0.63209   0.00000  Uiso   1.00
H396   H     0.67037   0.08381   0.97582   0.00000  Uiso   1.00
H397   H     0.67597   0.07910   0.73039   0.00000  Uiso   1.00
H398   H     0.58537   0.08501   0.86885   0.00000  Uiso   1.00
H399   H     0.64556   0.11854   0.87187   0.00000  Uiso   1.00
H400   H     0.74306   0.12331   0.67326   0.00000  Uiso   1.00
H401   H     0.58312   0.24013   0.09448   0.00000  Uiso   1.00
H402   H     0.66606   0.25316   0.24308   0.00000  Uiso   1.00
H403   H     0.60156   0.28198   0.24324   0.00000  Uiso   1.00
H404   H     0.73395   0.21138   0.04457   0.00000  Uiso   1.00
H405   H     0.56877   0.23377   0.34941   0.00000  Uiso   1.00
H406   H     0.65941   0.24087   0.49073   0.00000  Uiso   1.00
H407   H     0.59341   0.26785   0.49529   0.00000  Uiso   1.00
H408   H     0.65761   0.23639   0.99410   0.00000  Uiso   1.00
H409   H     0.57538   0.24271   0.59977   0.00000  Uiso   1.00
H410   H     0.66475   0.24500   0.74618   0.00000  Uiso   1.00
H411   H     0.60373   0.27487   0.74956   0.00000  Uiso   1.00
H412   H     0.57872   0.24929   0.84085   0.00000  Uiso   1.00
H413   H     0.74841   0.21436   0.79349   0.00000  Uiso   1.00
H414   H     0.59435   0.26298   0.99899   0.00000  Uiso   1.00
H415   H     0.73589   0.20894   0.54344   0.00000  Uiso   1.00
H416   H     0.68267   0.39971   0.98550   0.00000  Uiso   1.00
H417   H     0.63792   0.45122   0.11715   0.00000  Uiso   1.00
H418   H     0.73344   0.54090   0.05245   0.00000  Uiso   1.00
H419   H     0.59292   0.40495   0.37400   0.00000  Uiso   1.00
H420   H     0.65580   0.57490   0.24919   0.00000  Uiso   1.00
H421   H     0.58169   0.57678   0.35172   0.00000  Uiso   1.00
H422   H     0.64844   0.44352   0.37364   0.00000  Uiso   1.00
H423   H     0.74853   0.54884   0.30078   0.00000  Uiso   1.00
H424   H     0.68068   0.40517   0.48201   0.00000  Uiso   1.00
H425   H     0.74409   0.45450   0.42795   0.00000  Uiso   1.00
H426   H     0.56608   0.56787   0.10819   0.00000  Uiso   1.00
H427   H     0.58144   0.41494   0.11358   0.00000  Uiso   1.00
H428   H     0.67685   0.40774   0.22275   0.00000  Uiso   1.00
H429   H     0.58600   0.41357   0.87433   0.00000  Uiso   1.00
H430   H     0.64055   0.44774   0.62354   0.00000  Uiso   1.00
H431   H     0.66646   0.58302   0.74362   0.00000  Uiso   1.00
H432   H     0.67443   0.41179   0.72894   0.00000  Uiso   1.00
H433   H     0.57698   0.57552   0.84757   0.00000  Uiso   1.00
H434   H     0.64171   0.44950   0.87590   0.00000  Uiso   1.00
H435   H     0.74792   0.45441   0.93003   0.00000  Uiso   1.00
H436   H     0.58489   0.41284   0.61557   0.00000  Uiso   1.00
H437   H     0.57510   0.56952   0.60436   0.00000  Uiso   1.00
H438   H     0.74787   0.54683   0.80339   0.00000  Uiso   1.00
H439   H     0.74289   0.54750   0.55049   0.00000  Uiso   1.00
H440   H     0.66375   0.58282   0.99626   0.00000  Uiso   1.00
H441   H     0.66373   0.57781   0.50073   0.00000  Uiso   1.00
H442   H     0.59620   0.60980   0.25146   0.00000  Uiso   1.00
H443   H     0.60565   0.72001   0.11490   0.00000  Uiso   1.00
H444   H     0.64464   0.78673   0.47525   0.00000  Uiso   1.00
H445   H     0.60851   0.71433   0.36872   0.00000  Uiso   1.00
H446   H     0.67442   0.74308   0.36473   0.00000  Uiso   1.00
H447   H     0.74499   0.78719   0.42224   0.00000  Uiso   1.00
H448   H     0.66829   0.74691   0.11163   0.00000  Uiso   1.00
H449   H     0.64259   0.78836   0.21975   0.00000  Uiso   1.00
H450   H     0.74805   0.78582   0.17748   0.00000  Uiso   1.00
H451   H     0.50005   0.71310   0.42604   0.00000  Uiso   1.00
H452   H     0.50154   0.71371   0.17108   0.00000  Uiso   1.00
H453   H     0.74858   0.78481   0.92956   0.00000  Uiso   1.00
H454   H     0.60072   0.60871   0.50442   0.00000  Uiso   1.00
H455   H     0.60808   0.71687   0.62102   0.00000  Uiso   1.00
H456   H     0.66972   0.74513   0.86879   0.00000  Uiso   1.00
H457   H     0.60630   0.71764   0.87411   0.00000  Uiso   1.00
H458   H     0.74886   0.78664   0.67047   0.00000  Uiso   1.00
H459   H     0.64047   0.78965   0.72642   0.00000  Uiso   1.00
H460   H     0.60924   0.61663   0.74610   0.00000  Uiso   1.00
H461   H     0.67283   0.75007   0.61874   0.00000  Uiso   1.00
H462   H     0.64106   0.79067   0.96628   0.00000  Uiso   1.00
H463   H     0.60119   0.61151   0.99605   0.00000  Uiso   1.00
H464   H     0.57025   0.89773   0.09858   0.00000  Uiso   1.00
H465   H     0.65661   0.90400   0.24779   0.00000  Uiso   1.00
H466   H     0.59963   0.93657   0.24617   0.00000  Uiso   1.00
H467   H     0.57154   0.90209   0.35926   0.00000  Uiso   1.00
H468   H     0.50112   0.95351   0.29865   0.00000  Uiso   1.00
H469   H     0.73790   0.87441   0.04739   0.00000  Uiso   1.00
H470   H     0.74467   0.87751   0.30173   0.00000  Uiso   1.00
H471   H     0.66841   0.90814   0.49843   0.00000  Uiso   1.00
H472   H     0.60190   0.94682   0.00028   0.00000  Uiso   1.00
H473   H     0.57224   0.89901   0.59593   0.00000  Uiso   1.00
H474   H     0.65978   0.89846   0.74717   0.00000  Uiso   1.00
H475   H     0.60143   0.93024   0.74902   0.00000  Uiso   1.00
H476   H     0.74886   0.87459   0.55116   0.00000  Uiso   1.00
H477   H     0.56814   0.89834   0.85607   0.00000  Uiso   1.00
H478   H     0.60592   0.94176   0.50186   0.00000  Uiso   1.00
H479   H     0.73584   0.87446   0.79612   0.00000  Uiso   1.00
H480   H     0.66499   0.91386   0.99621   0.00000  Uiso   1.00
H481   H     0.91946   0.07776   0.47291   0.00000  Uiso   1.00
H482   H     0.93112   0.09491   0.22761   0.00000  Uiso   1.00
H483   H     0.82761   0.07100   0.11131   0.00000  Uiso   1.00
H484   H     0.88995   0.04168   0.11626   0.00000  Uiso   1.00
H485   H     0.83882   0.08656   0.36677   0.00000  Uiso   1.00
H486   H     0.89374   0.05073   0.36838   0.00000  Uiso   1.00
H487   H     0.99572   0.04748   0.16399   0.00000  Uiso   1.00
H488   H     0.99977   0.04630   0.41677   0.00000  Uiso   1.00
H489   H     0.92423   0.08490   0.72028   0.00000  Uiso   1.00
H490   H     0.83081   0.08175   0.61896   0.00000  Uiso   1.00
H491   H     0.89578   0.05078   0.62593   0.00000  Uiso   1.00
H492   H     0.83920   0.08234   0.86706   0.00000  Uiso   1.00
H493   H     0.90009   0.04872   0.87054   0.00000  Uiso   1.00
H494   H     0.92454   0.09230   0.97843   0.00000  Uiso   1.00
H495   H     0.75018   0.12048   0.91410   0.00000  Uiso   1.00
H496   H     0.90197   0.27497   0.24530   0.00000  Uiso   1.00
H497   H     0.83817   0.24400   0.24932   0.00000  Uiso   1.00
H498   H     0.82536   0.26233   0.08885   0.00000  Uiso   1.00
H499   H     0.99223   0.28309   0.04446   0.00000  Uiso   1.00
H500   H     0.98333   0.28829   0.29421   0.00000  Uiso   1.00
H501   H     0.82041   0.27113   0.35906   0.00000  Uiso   1.00
H502   H     0.89519   0.37572   0.12008   0.00000  Uiso   1.00
H503   H     0.90104   0.38636   0.37352   0.00000  Uiso   1.00
H504   H     0.85192   0.22242   0.49937   0.00000  Uiso   1.00
H505   H     0.75056   0.21693   0.29185   0.00000  Uiso   1.00
H506   H     0.99712   0.37348   0.17159   0.00000  Uiso   1.00
H507   H     0.99228   0.37517   0.41440   0.00000  Uiso   1.00
H508   H     0.92406   0.24644   0.73267   0.00000  Uiso   1.00
H509   H     0.89714   0.38087   0.87520   0.00000  Uiso   1.00
H510   H     0.99060   0.29114   0.54194   0.00000  Uiso   1.00
H511   H     0.82255   0.26569   0.60001   0.00000  Uiso   1.00
H512   H     0.90364   0.38970   0.62028   0.00000  Uiso   1.00
H513   H     0.99195   0.37785   0.66925   0.00000  Uiso   1.00
H514   H     0.82559   0.25997   0.85228   0.00000  Uiso   1.00
H515   H     0.86178   0.21405   0.73668   0.00000  Uiso   1.00
H516   H     0.91412   0.25738   0.99434   0.00000  Uiso   1.00
H517   H     0.98677   0.28838   0.79124   0.00000  Uiso   1.00
H518   H     0.91078   0.26268   0.50244   0.00000  Uiso   1.00
H519   H     0.99670   0.37698   0.92113   0.00000  Uiso   1.00
H520   H     0.85473   0.22404   0.99843   0.00000  Uiso   1.00
H521   H     0.86006   0.55154   0.24542   0.00000  Uiso   1.00
H522   H     0.83296   0.41411   0.12007   0.00000  Uiso   1.00
H523   H     0.92399   0.42439   0.22118   0.00000  Uiso   1.00
H524   H     0.83936   0.42037   0.37467   0.00000  Uiso   1.00
H525   H     0.92234   0.42490   0.47055   0.00000  Uiso   1.00
H526   H     0.91703   0.59171   0.24181   0.00000  Uiso   1.00
H527   H     0.75320   0.45612   0.17988   0.00000  Uiso   1.00
H528   H     0.91768   0.58294   0.49134   0.00000  Uiso   1.00
H529   H     0.85923   0.55407   0.49615   0.00000  Uiso   1.00
H530   H     0.82527   0.59056   0.35110   0.00000  Uiso   1.00
H531   H     0.91201   0.59031   0.00352   0.00000  Uiso   1.00
H532   H     0.85010   0.55948   0.01211   0.00000  Uiso   1.00
H533   H     0.84073   0.41832   0.62407   0.00000  Uiso   1.00
H534   H     0.84604   0.57537   0.75333   0.00000  Uiso   1.00
H535   H     0.92779   0.42216   0.72491   0.00000  Uiso   1.00
H536   H     0.84329   0.42366   0.87810   0.00000  Uiso   1.00
H537   H     0.92962   0.42958   0.98568   0.00000  Uiso   1.00
H538   H     0.75041   0.45891   0.67552   0.00000  Uiso   1.00
H539   H     0.82291   0.59804   0.86203   0.00000  Uiso   1.00
H540   H     0.82361   0.59637   0.59519   0.00000  Uiso   1.00
H541   H     0.99682   0.61803   0.04238   0.00000  Uiso   1.00
H542   H     0.88880   0.70288   0.22293   0.00000  Uiso   1.00
H543   H     0.92147   0.75086   0.12146   0.00000  Uiso   1.00
H544   H     0.99636   0.62154   0.29431   0.00000  Uiso   1.00
H545   H     0.93353   0.76611   0.34474   0.00000  Uiso   1.00
H546   H     0.89471   0.70700   0.47292   0.00000  Uiso   1.00
H547   H     0.98247   0.71294   0.41706   0.00000  Uiso   1.00
H548   H     0.86069   0.78941   0.11727   0.00000  Uiso   1.00
H549   H     0.86793   0.78990   0.36032   0.00000  Uiso   1.00
H550   H     0.81821   0.60061   0.10962   0.00000  Uiso   1.00
H551   H     0.85689   0.77536   0.62295   0.00000  Uiso   1.00
H552   H     0.89413   0.70673   0.72750   0.00000  Uiso   1.00
H553   H     0.91605   0.74563   0.62330   0.00000  Uiso   1.00
H554   H     0.98775   0.62448   0.54601   0.00000  Uiso   1.00
H555   H     0.92806   0.76167   0.85777   0.00000  Uiso   1.00
H556   H     0.89749   0.71317   0.97278   0.00000  Uiso   1.00
H557   H     0.86699   0.79080   0.86397   0.00000  Uiso   1.00
H558   H     0.98749   0.62251   0.79645   0.00000  Uiso   1.00
H559   H     0.99154   0.70802   0.67524   0.00000  Uiso   1.00
H560   H     0.90395   0.60595   0.75127   0.00000  Uiso   1.00
H561   H     0.91335   0.93074   0.24246   0.00000  Uiso   1.00
H562   H     0.85540   0.89466   0.24692   0.00000  Uiso   1.00
H563   H     0.91182   0.92557   0.49448   0.00000  Uiso   1.00
H564   H     0.82601   0.92363   0.09631   0.00000  Uiso   1.00
H565   H     0.82752   0.92539   0.34502   0.00000  Uiso   1.00
H566   H     0.98522   0.95740   0.28868   0.00000  Uiso   1.00
H567   H     0.85485   0.88859   0.49865   0.00000  Uiso   1.00
H568   H     0.99649   0.95593   0.03826   0.00000  Uiso   1.00
H569   H     0.99381   0.95732   0.54102   0.00000  Uiso   1.00
H570   H     0.91384   0.92730   0.74393   0.00000  Uiso   1.00
H571   H     0.84560   0.89634   0.75180   0.00000  Uiso   1.00
H572   H     0.81906   0.92667   0.60492   0.00000  Uiso   1.00
H573   H     0.82587   0.92531   0.84715   0.00000  Uiso   1.00
H574   H     0.91544   0.92849   0.99483   0.00000  Uiso   1.00
H575   H     0.99278   0.95501   0.79027   0.00000  Uiso   1.00
H576   H     0.85550   0.89269   0.99903   0.00000  Uiso   1.00
C577   C     0.10240   0.08430   0.08377   0.00000  Uiso   1.00
C578   C     0.13779   0.10237   0.08681   0.00000  Uiso   1.00
C579   C     0.05912   0.04078   0.04424   0.00000  Uiso   1.00
C580   C     0.09475   0.06209   0.04276   0.00000  Uiso   1.00
C581   C     0.19893   0.12337   0.04609   0.00000  Uiso   1.00
C582   C     0.16498   0.10023   0.04732   0.00000  Uiso   1.00
C583   C     0.09899   0.08791   0.33120   0.00000  Uiso   1.00
C584   C     0.13444   0.10489   0.33656   0.00000  Uiso   1.00
C585   C     0.11852   0.06361   0.25043   0.00000  Uiso   1.00
C586   C     0.15345   0.08220   0.25537   0.00000  Uiso   1.00
C587   C     0.05677   0.04370   0.29183   0.00000  Uiso   1.00
C588   C     0.09081   0.06611   0.28972   0.00000  Uiso   1.00
C589   C     0.19764   0.12328   0.29976   0.00000  Uiso   1.00
C590   C     0.16190   0.10256   0.29799   0.00000  Uiso   1.00
C591   C     0.12054   0.06164   0.00346   0.00000  Uiso   1.00
C592   C     0.15562   0.08033   0.00408   0.00000  Uiso   1.00
C593   C     0.18743   0.19660   0.17216   0.00000  Uiso   1.00
C594   C     0.19046   0.19962   0.42217   0.00000  Uiso   1.00
C595   C     0.14983   0.08523   0.50564   0.00000  Uiso   1.00
C596   C     0.09838   0.09239   0.58450   0.00000  Uiso   1.00
C597   C     0.13475   0.10722   0.58717   0.00000  Uiso   1.00
C598   C     0.05274   0.04964   0.54279   0.00000  Uiso   1.00
C599   C     0.08726   0.07243   0.54165   0.00000  Uiso   1.00
C600   C     0.19864   0.12308   0.54943   0.00000  Uiso   1.00
C601   C     0.16093   0.10336   0.54709   0.00000  Uiso   1.00
C602   C     0.10819   0.08084   0.83994   0.00000  Uiso   1.00
C603   C     0.14375   0.09760   0.84247   0.00000  Uiso   1.00
C604   C     0.11738   0.06679   0.75100   0.00000  Uiso   1.00
C605   C     0.15370   0.08327   0.75424   0.00000  Uiso   1.00
C606   C     0.05701   0.04601   0.79299   0.00000  Uiso   1.00
C607   C     0.09353   0.06646   0.79521   0.00000  Uiso   1.00
C608   C     0.19563   0.12630   0.79673   0.00000  Uiso   1.00
C609   C     0.16504   0.10037   0.79801   0.00000  Uiso   1.00
C610   C     0.18657   0.19582   0.67144   0.00000  Uiso   1.00
C611   C     0.11182   0.07204   0.50101   0.00000  Uiso   1.00
C612   C     0.11584   0.39214   0.25182   0.00000  Uiso   1.00
C613   C     0.09175   0.39645   0.04127   0.00000  Uiso   1.00
C614   C     0.05621   0.37223   0.29796   0.00000  Uiso   1.00
C615   C     0.11800   0.39330   0.00175   0.00000  Uiso   1.00
C616   C     0.12448   0.21654   0.12717   0.00000  Uiso   1.00
C617   C     0.09160   0.23845   0.12827   0.00000  Uiso   1.00
C618   C     0.14776   0.21291   0.17130   0.00000  Uiso   1.00
C619   C     0.04520   0.28081   0.16833   0.00000  Uiso   1.00
C620   C     0.07935   0.25576   0.17049   0.00000  Uiso   1.00
C621   C     0.13630   0.23199   0.21300   0.00000  Uiso   1.00
C622   C     0.10211   0.25176   0.21349   0.00000  Uiso   1.00
C623   C     0.05624   0.37374   0.04323   0.00000  Uiso   1.00
C624   C     0.09240   0.39249   0.29584   0.00000  Uiso   1.00
C625   C     0.12724   0.21711   0.38111   0.00000  Uiso   1.00
C626   C     0.09433   0.23867   0.38270   0.00000  Uiso   1.00
C627   C     0.15213   0.21855   0.42207   0.00000  Uiso   1.00
C628   C     0.04739   0.28094   0.42427   0.00000  Uiso   1.00
C629   C     0.08321   0.25821   0.42559   0.00000  Uiso   1.00
C630   C     0.14311   0.24080   0.46431   0.00000  Uiso   1.00
C631   C     0.10735   0.25799   0.46832   0.00000  Uiso   1.00
C632   C     0.06170   0.36726   0.79440   0.00000  Uiso   1.00
C633   C     0.12704   0.38540   0.50598   0.00000  Uiso   1.00
C634   C     0.18909   0.20122   0.91813   0.00000  Uiso   1.00
C635   C     0.12667   0.38415   0.75635   0.00000  Uiso   1.00
C636   C     0.12721   0.21945   0.62656   0.00000  Uiso   1.00
C637   C     0.09206   0.23804   0.62753   0.00000  Uiso   1.00
C638   C     0.09900   0.38690   0.79509   0.00000  Uiso   1.00
C639   C     0.15058   0.21677   0.67125   0.00000  Uiso   1.00
C640   C     0.04699   0.28165   0.66882   0.00000  Uiso   1.00
C641   C     0.08055   0.25742   0.67169   0.00000  Uiso   1.00
C642   C     0.13875   0.23608   0.71424   0.00000  Uiso   1.00
C643   C     0.10342   0.25444   0.71448   0.00000  Uiso   1.00
C644   C     0.06230   0.37229   0.54439   0.00000  Uiso   1.00
C645   C     0.12484   0.21936   0.88021   0.00000  Uiso   1.00
C646   C     0.09136   0.24030   0.88125   0.00000  Uiso   1.00
C647   C     0.15209   0.21927   0.92010   0.00000  Uiso   1.00
C648   C     0.04590   0.28157   0.92618   0.00000  Uiso   1.00
C649   C     0.08046   0.25775   0.92524   0.00000  Uiso   1.00
C650   C     0.14367   0.24202   0.96149   0.00000  Uiso   1.00
C651   C     0.10700   0.25911   0.96431   0.00000  Uiso   1.00
C652   C     0.09862   0.39134   0.54474   0.00000  Uiso   1.00
C653   C     0.15108   0.41262   0.25167   0.00000  Uiso   1.00
C654   C     0.10555   0.58885   0.46295   0.00000  Uiso   1.00
C655   C     0.10504   0.40988   0.33997   0.00000  Uiso   1.00
C656   C     0.08038   0.59105   0.16992   0.00000  Uiso   1.00
C657   C     0.12090   0.54569   0.13278   0.00000  Uiso   1.00
C658   C     0.08466   0.56408   0.13533   0.00000  Uiso   1.00
C659   C     0.14310   0.42817   0.08773   0.00000  Uiso   1.00
C660   C     0.19126   0.53402   0.16336   0.00000  Uiso   1.00
C661   C     0.15241   0.55288   0.16610   0.00000  Uiso   1.00
C662   C     0.08178   0.59119   0.42097   0.00000  Uiso   1.00
C663   C     0.14308   0.57466   0.20778   0.00000  Uiso   1.00
C664   C     0.20424   0.44682   0.04607   0.00000  Uiso   1.00
C665   C     0.16917   0.42475   0.04615   0.00000  Uiso   1.00
C666   C     0.12704   0.55170   0.37499   0.00000  Uiso   1.00
C667   C     0.09210   0.57121   0.37789   0.00000  Uiso   1.00
C668   C     0.13865   0.43016   0.33780   0.00000  Uiso   1.00
C669   C     0.18996   0.53233   0.41672   0.00000  Uiso   1.00
C670   C     0.15170   0.55309   0.41578   0.00000  Uiso   1.00
C671   C     0.14118   0.57072   0.45933   0.00000  Uiso   1.00
C672   C     0.10527   0.41438   0.08452   0.00000  Uiso   1.00
C673   C     0.19815   0.45440   0.29433   0.00000  Uiso   1.00
C674   C     0.16228   0.43233   0.29453   0.00000  Uiso   1.00
C675   C     0.15635   0.40476   0.00464   0.00000  Uiso   1.00
C676   C     0.10709   0.59257   0.21018   0.00000  Uiso   1.00
C677   C     0.08132   0.58645   0.93162   0.00000  Uiso   1.00
C678   C     0.10588   0.58362   0.71039   0.00000  Uiso   1.00
C679   C     0.10837   0.41435   0.58365   0.00000  Uiso   1.00
C680   C     0.12726   0.54738   0.62384   0.00000  Uiso   1.00
C681   C     0.16168   0.40626   0.50803   0.00000  Uiso   1.00
C682   C     0.09247   0.56686   0.62610   0.00000  Uiso   1.00
C683   C     0.14197   0.43368   0.58385   0.00000  Uiso   1.00
C684   C     0.19005   0.52895   0.66566   0.00000  Uiso   1.00
C685   C     0.15167   0.54637   0.66630   0.00000  Uiso   1.00
C686   C     0.14062   0.56382   0.70839   0.00000  Uiso   1.00
C687   C     0.10421   0.58400   0.97292   0.00000  Uiso   1.00
C688   C     0.08236   0.58582   0.66825   0.00000  Uiso   1.00
C689   C     0.20198   0.45552   0.54605   0.00000  Uiso   1.00
C690   C     0.16949   0.42991   0.54728   0.00000  Uiso   1.00
C691   C     0.12688   0.54767   0.88605   0.00000  Uiso   1.00
C692   C     0.09137   0.56719   0.88947   0.00000  Uiso   1.00
C693   C     0.14214   0.42792   0.83811   0.00000  Uiso   1.00
C694   C     0.18807   0.52805   0.92388   0.00000  Uiso   1.00
C695   C     0.15108   0.54840   0.92799   0.00000  Uiso   1.00
C696   C     0.13982   0.56547   0.97036   0.00000  Uiso   1.00
C697   C     0.20160   0.45044   0.79916   0.00000  Uiso   1.00
C698   C     0.16988   0.42485   0.80119   0.00000  Uiso   1.00
C699   C     0.16188   0.40248   0.76003   0.00000  Uiso   1.00
C700   C     0.10639   0.40963   0.83468   0.00000  Uiso   1.00
C701   C     0.11954   0.73030   0.00958   0.00000  Uiso   1.00
C702   C     0.15477   0.74865   0.01156   0.00000  Uiso   1.00
C703   C     0.19989   0.79137   0.05186   0.00000  Uiso   1.00
C704   C     0.04705   0.61462   0.16672   0.00000  Uiso   1.00
C705   C     0.09997   0.75747   0.08718   0.00000  Uiso   1.00
C706   C     0.13560   0.77547   0.09073   0.00000  Uiso   1.00
C707   C     0.20138   0.78879   0.29543   0.00000  Uiso   1.00
C708   C     0.05527   0.71413   0.04736   0.00000  Uiso   1.00
C709   C     0.09131   0.73540   0.04683   0.00000  Uiso   1.00
C710   C     0.16273   0.77216   0.05090   0.00000  Uiso   1.00
C711   C     0.04906   0.61675   0.42001   0.00000  Uiso   1.00
C712   C     0.10734   0.74644   0.33563   0.00000  Uiso   1.00
C713   C     0.14324   0.76207   0.33641   0.00000  Uiso   1.00
C714   C     0.12340   0.72644   0.25176   0.00000  Uiso   1.00
C715   C     0.15810   0.74374   0.25624   0.00000  Uiso   1.00
C716   C     0.05663   0.71098   0.29362   0.00000  Uiso   1.00
C717   C     0.09589   0.72749   0.29247   0.00000  Uiso   1.00
C718   C     0.16809   0.76349   0.29731   0.00000  Uiso   1.00
C719   C     0.05232   0.61331   0.66687   0.00000  Uiso   1.00
C720   C     0.10542   0.75247   0.58781   0.00000  Uiso   1.00
C721   C     0.13889   0.77405   0.58963   0.00000  Uiso   1.00
C722   C     0.20034   0.78817   0.79515   0.00000  Uiso   1.00
C723   C     0.06084   0.70905   0.54429   0.00000  Uiso   1.00
C724   C     0.09622   0.73161   0.54546   0.00000  Uiso   1.00
C725   C     0.16396   0.77680   0.54754   0.00000  Uiso   1.00
C726   C     0.04952   0.61302   0.92792   0.00000  Uiso   1.00
C727   C     0.11172   0.73626   0.83901   0.00000  Uiso   1.00
C728   C     0.14581   0.75850   0.84072   0.00000  Uiso   1.00
C729   C     0.11989   0.72510   0.75234   0.00000  Uiso   1.00
C730   C     0.15539   0.74404   0.75366   0.00000  Uiso   1.00
C731   C     0.06160   0.70148   0.79551   0.00000  Uiso   1.00
C732   C     0.09900   0.72094   0.79556   0.00000  Uiso   1.00
C733   C     0.16813   0.76198   0.79626   0.00000  Uiso   1.00
C734   C     0.19981   0.79662   0.54730   0.00000  Uiso   1.00
C735   C     0.12037   0.73518   0.50366   0.00000  Uiso   1.00
C736   C     0.15303   0.75747   0.50389   0.00000  Uiso   1.00
C737   C     0.12836   0.89003   0.12890   0.00000  Uiso   1.00
C738   C     0.09357   0.90876   0.13034   0.00000  Uiso   1.00
C739   C     0.19025   0.87121   0.17276   0.00000  Uiso   1.00
C740   C     0.15112   0.88702   0.17092   0.00000  Uiso   1.00
C741   C     0.04920   0.95095   0.17068   0.00000  Uiso   1.00
C742   C     0.08130   0.92690   0.17218   0.00000  Uiso   1.00
C743   C     0.13765   0.90208   0.21527   0.00000  Uiso   1.00
C744   C     0.10217   0.92149   0.21821   0.00000  Uiso   1.00
C745   C     0.12979   0.88512   0.38016   0.00000  Uiso   1.00
C746   C     0.09561   0.90591   0.37907   0.00000  Uiso   1.00
C747   C     0.19355   0.86948   0.42051   0.00000  Uiso   1.00
C748   C     0.15628   0.88921   0.42052   0.00000  Uiso   1.00
C749   C     0.05268   0.95153   0.41960   0.00000  Uiso   1.00
C750   C     0.08831   0.92963   0.41953   0.00000  Uiso   1.00
C751   C     0.14887   0.91255   0.45914   0.00000  Uiso   1.00
C752   C     0.11444   0.93233   0.45747   0.00000  Uiso   1.00
C753   C     0.13026   0.88975   0.62547   0.00000  Uiso   1.00
C754   C     0.09445   0.90774   0.62551   0.00000  Uiso   1.00
C755   C     0.18960   0.86833   0.66930   0.00000  Uiso   1.00
C756   C     0.15106   0.88458   0.67124   0.00000  Uiso   1.00
C757   C     0.04840   0.94930   0.66597   0.00000  Uiso   1.00
C758   C     0.08103   0.92483   0.66992   0.00000  Uiso   1.00
C759   C     0.13410   0.89709   0.71646   0.00000  Uiso   1.00
C760   C     0.09844   0.91548   0.71613   0.00000  Uiso   1.00
C761   C     0.12323   0.88239   0.88260   0.00000  Uiso   1.00
C762   C     0.08849   0.90173   0.88269   0.00000  Uiso   1.00
C763   C     0.18953   0.86940   0.92139   0.00000  Uiso   1.00
C764   C     0.15042   0.88781   0.92196   0.00000  Uiso   1.00
C765   C     0.04792   0.95089   0.92136   0.00000  Uiso   1.00
C766   C     0.08074   0.92720   0.92310   0.00000  Uiso   1.00
C767   C     0.14229   0.91288   0.96021   0.00000  Uiso   1.00
C768   C     0.10794   0.93140   0.96318   0.00000  Uiso   1.00
C769   C     0.30955   0.12913   0.04716   0.00000  Uiso   1.00
C770   C     0.34495   0.10848   0.04573   0.00000  Uiso   1.00
C771   C     0.44811   0.04557   0.04478   0.00000  Uiso   1.00
C772   C     0.41360   0.06823   0.04594   0.00000  Uiso   1.00
C773   C     0.35360   0.08509   0.08373   0.00000  Uiso   1.00
C774   C     0.38996   0.06889   0.08729   0.00000  Uiso   1.00
C775   C     0.36801   0.10046   0.25344   0.00000  Uiso   1.00
C776   C     0.40310   0.08247   0.25510   0.00000  Uiso   1.00
C777   C     0.30604   0.12207   0.29578   0.00000  Uiso   1.00
C778   C     0.34129   0.09935   0.29341   0.00000  Uiso   1.00
C779   C     0.44980   0.03983   0.29835   0.00000  Uiso   1.00
C780   C     0.41435   0.06262   0.29817   0.00000  Uiso   1.00
C781   C     0.35154   0.07906   0.33564   0.00000  Uiso   1.00
C782   C     0.38907   0.06331   0.33861   0.00000  Uiso   1.00
C783   C     0.40487   0.08913   0.00432   0.00000  Uiso   1.00
C784   C     0.37030   0.10906   0.00433   0.00000  Uiso   1.00
C785   C     0.30746   0.12417   0.54740   0.00000  Uiso   1.00
C786   C     0.34281   0.10200   0.54615   0.00000  Uiso   1.00
C787   C     0.44995   0.04168   0.55241   0.00000  Uiso   1.00
C788   C     0.41460   0.06555   0.55409   0.00000  Uiso   1.00
C789   C     0.35254   0.08416   0.59052   0.00000  Uiso   1.00
C790   C     0.38854   0.06629   0.59400   0.00000  Uiso   1.00
C791   C     0.36983   0.10772   0.75760   0.00000  Uiso   1.00
C792   C     0.40283   0.08592   0.75900   0.00000  Uiso   1.00
C793   C     0.30705   0.12769   0.79698   0.00000  Uiso   1.00
C794   C     0.34370   0.10685   0.79892   0.00000  Uiso   1.00
C795   C     0.44764   0.04129   0.79908   0.00000  Uiso   1.00
C796   C     0.41197   0.06620   0.80154   0.00000  Uiso   1.00
C797   C     0.35099   0.08395   0.84113   0.00000  Uiso   1.00
C798   C     0.38623   0.06510   0.84291   0.00000  Uiso   1.00
C799   C     0.37001   0.10506   0.50710   0.00000  Uiso   1.00
C800   C     0.40501   0.08526   0.51105   0.00000  Uiso   1.00
C801   C     0.29630   0.21790   0.42402   0.00000  Uiso   1.00
C802   C     0.38913   0.26488   0.21289   0.00000  Uiso   1.00
C803   C     0.35430   0.24586   0.21415   0.00000  Uiso   1.00
C804   C     0.37749   0.28269   0.12914   0.00000  Uiso   1.00
C805   C     0.34267   0.26227   0.12974   0.00000  Uiso   1.00
C806   C     0.43853   0.29972   0.17096   0.00000  Uiso   1.00
C807   C     0.39988   0.28463   0.17142   0.00000  Uiso   1.00
C808   C     0.29805   0.21723   0.17125   0.00000  Uiso   1.00
C809   C     0.33042   0.24469   0.17330   0.00000  Uiso   1.00
C810   C     0.45310   0.37599   0.04162   0.00000  Uiso   1.00
C811   C     0.39320   0.26116   0.46302   0.00000  Uiso   1.00
C812   C     0.35663   0.24350   0.46608   0.00000  Uiso   1.00
C813   C     0.37621   0.28245   0.37916   0.00000  Uiso   1.00
C814   C     0.34326   0.26182   0.38249   0.00000  Uiso   1.00
C815   C     0.44042   0.29951   0.41913   0.00000  Uiso   1.00
C816   C     0.40299   0.28011   0.41894   0.00000  Uiso   1.00
C817   C     0.33171   0.24284   0.42540   0.00000  Uiso   1.00
C818   C     0.45360   0.38412   0.29490   0.00000  Uiso   1.00
C819   C     0.41753   0.39995   0.04174   0.00000  Uiso   1.00
C820   C     0.39323   0.25540   0.70913   0.00000  Uiso   1.00
C821   C     0.35618   0.24050   0.71257   0.00000  Uiso   1.00
C822   C     0.37510   0.28065   0.62698   0.00000  Uiso   1.00
C823   C     0.33870   0.26164   0.62845   0.00000  Uiso   1.00
C824   C     0.43935   0.29662   0.66810   0.00000  Uiso   1.00
C825   C     0.40240   0.27636   0.66637   0.00000  Uiso   1.00
C826   C     0.32906   0.24373   0.67219   0.00000  Uiso   1.00
C827   C     0.45244   0.38002   0.54619   0.00000  Uiso   1.00
C828   C     0.38905   0.26495   0.95814   0.00000  Uiso   1.00
C829   C     0.35685   0.24341   0.96136   0.00000  Uiso   1.00
C830   C     0.37615   0.27958   0.87299   0.00000  Uiso   1.00
C831   C     0.34112   0.26026   0.87564   0.00000  Uiso   1.00
C832   C     0.43756   0.30023   0.91656   0.00000  Uiso   1.00
C833   C     0.39979   0.28406   0.91592   0.00000  Uiso   1.00
C834   C     0.29730   0.21598   0.92296   0.00000  Uiso   1.00
C835   C     0.33067   0.24158   0.92006   0.00000  Uiso   1.00
C836   C     0.45004   0.37702   0.79773   0.00000  Uiso   1.00
C837   C     0.29370   0.22183   0.67295   0.00000  Uiso   1.00
C838   C     0.41321   0.39825   0.79882   0.00000  Uiso   1.00
C839   C     0.38781   0.39537   0.83960   0.00000  Uiso   1.00
C840   C     0.39181   0.39911   0.58563   0.00000  Uiso   1.00
C841   C     0.39656   0.58876   0.20528   0.00000  Uiso   1.00
C842   C     0.33618   0.56988   0.42265   0.00000  Uiso   1.00
C843   C     0.39518   0.58788   0.46243   0.00000  Uiso   1.00
C844   C     0.39264   0.40777   0.33962   0.00000  Uiso   1.00
C845   C     0.35987   0.57081   0.20859   0.00000  Uiso   1.00
C846   C     0.31047   0.45855   0.04063   0.00000  Uiso   1.00
C847   C     0.34794   0.44033   0.04130   0.00000  Uiso   1.00
C848   C     0.30007   0.54960   0.42146   0.00000  Uiso   1.00
C849   C     0.35776   0.41948   0.08346   0.00000  Uiso   1.00
C850   C     0.35796   0.42778   0.33855   0.00000  Uiso   1.00
C851   C     0.29619   0.55202   0.17059   0.00000  Uiso   1.00
C852   C     0.33215   0.57486   0.16985   0.00000  Uiso   1.00
C853   C     0.37298   0.44608   0.25358   0.00000  Uiso   1.00
C854   C     0.40807   0.42861   0.25581   0.00000  Uiso   1.00
C855   C     0.36156   0.56750   0.46283   0.00000  Uiso   1.00
C856   C     0.30736   0.46215   0.29285   0.00000  Uiso   1.00
C857   C     0.34642   0.44596   0.29609   0.00000  Uiso   1.00
C858   C     0.39376   0.40051   0.08303   0.00000  Uiso   1.00
C859   C     0.41874   0.40845   0.29893   0.00000  Uiso   1.00
C860   C     0.34710   0.58768   0.37869   0.00000  Uiso   1.00
C861   C     0.39186   0.59013   0.96855   0.00000  Uiso   1.00
C862   C     0.40632   0.42131   0.75949   0.00000  Uiso   1.00
C863   C     0.35364   0.41611   0.83874   0.00000  Uiso   1.00
C864   C     0.29598   0.54992   0.92690   0.00000  Uiso   1.00
C865   C     0.35742   0.57159   0.72036   0.00000  Uiso   1.00
C866   C     0.30927   0.45987   0.54442   0.00000  Uiso   1.00
C867   C     0.34617   0.43986   0.54342   0.00000  Uiso   1.00
C868   C     0.33024   0.57532   0.93007   0.00000  Uiso   1.00
C869   C     0.34241   0.59305   0.88585   0.00000  Uiso   1.00
C870   C     0.35595   0.41794   0.58383   0.00000  Uiso   1.00
C871   C     0.29759   0.54810   0.67683   0.00000  Uiso   1.00
C872   C     0.33062   0.57326   0.67889   0.00000  Uiso   1.00
C873   C     0.37113   0.44222   0.75727   0.00000  Uiso   1.00
C874   C     0.39181   0.59038   0.71799   0.00000  Uiso   1.00
C875   C     0.35465   0.57586   0.97129   0.00000  Uiso   1.00
C876   C     0.30682   0.45769   0.79425   0.00000  Uiso   1.00
C877   C     0.34342   0.43719   0.79526   0.00000  Uiso   1.00
C878   C     0.41794   0.40285   0.54657   0.00000  Uiso   1.00
C879   C     0.33992   0.59365   0.63698   0.00000  Uiso   1.00
C880   C     0.37315   0.43888   0.99773   0.00000  Uiso   1.00
C881   C     0.37375   0.44478   0.50509   0.00000  Uiso   1.00
C882   C     0.41010   0.42548   0.50759   0.00000  Uiso   1.00
C883   C     0.40812   0.41938   0.99910   0.00000  Uiso   1.00
C884   C     0.30841   0.79086   0.29850   0.00000  Uiso   1.00
C885   C     0.40423   0.60904   0.42038   0.00000  Uiso   1.00
C886   C     0.37545   0.61803   0.12870   0.00000  Uiso   1.00
C887   C     0.38185   0.60687   0.37624   0.00000  Uiso   1.00
C888   C     0.44067   0.63539   0.16987   0.00000  Uiso   1.00
C889   C     0.34621   0.78116   0.04291   0.00000  Uiso   1.00
C890   C     0.44680   0.70959   0.04421   0.00000  Uiso   1.00
C891   C     0.41499   0.73732   0.04771   0.00000  Uiso   1.00
C892   C     0.35759   0.76399   0.08849   0.00000  Uiso   1.00
C893   C     0.39160   0.74381   0.09099   0.00000  Uiso   1.00
C894   C     0.44056   0.63137   0.42218   0.00000  Uiso   1.00
C895   C     0.37133   0.77438   0.25854   0.00000  Uiso   1.00
C896   C     0.40684   0.75660   0.25948   0.00000  Uiso   1.00
C897   C     0.40423   0.61374   0.16597   0.00000  Uiso   1.00
C898   C     0.34192   0.76728   0.29597   0.00000  Uiso   1.00
C899   C     0.45230   0.71288   0.29971   0.00000  Uiso   1.00
C900   C     0.41593   0.73476   0.29927   0.00000  Uiso   1.00
C901   C     0.34969   0.74276   0.33463   0.00000  Uiso   1.00
C902   C     0.38681   0.72661   0.33635   0.00000  Uiso   1.00
C903   C     0.40463   0.75593   0.00408   0.00000  Uiso   1.00
C904   C     0.37081   0.77633   0.00035   0.00000  Uiso   1.00
C905   C     0.33910   0.60094   0.13123   0.00000  Uiso   1.00
C906   C     0.30732   0.79437   0.79171   0.00000  Uiso   1.00
C907   C     0.37422   0.61321   0.63476   0.00000  Uiso   1.00
C908   C     0.40285   0.61030   0.92625   0.00000  Uiso   1.00
C909   C     0.37797   0.61004   0.88349   0.00000  Uiso   1.00
C910   C     0.31102   0.79777   0.54827   0.00000  Uiso   1.00
C911   C     0.43677   0.63240   0.67538   0.00000  Uiso   1.00
C912   C     0.34699   0.77580   0.54732   0.00000  Uiso   1.00
C913   C     0.44796   0.71042   0.55140   0.00000  Uiso   1.00
C914   C     0.41331   0.73223   0.55000   0.00000  Uiso   1.00
C915   C     0.35611   0.75485   0.58940   0.00000  Uiso   1.00
C916   C     0.38925   0.73317   0.59126   0.00000  Uiso   1.00
C917   C     0.44042   0.62975   0.92533   0.00000  Uiso   1.00
C918   C     0.37527   0.78169   0.76353   0.00000  Uiso   1.00
C919   C     0.41013   0.76082   0.76370   0.00000  Uiso   1.00
C920   C     0.34385   0.77374   0.79346   0.00000  Uiso   1.00
C921   C     0.44818   0.71161   0.80055   0.00000  Uiso   1.00
C922   C     0.41259   0.73311   0.79971   0.00000  Uiso   1.00
C923   C     0.34952   0.74818   0.83224   0.00000  Uiso   1.00
C924   C     0.38265   0.72723   0.83440   0.00000  Uiso   1.00
C925   C     0.40091   0.61101   0.67568   0.00000  Uiso   1.00
C926   C     0.37158   0.77443   0.50637   0.00000  Uiso   1.00
C927   C     0.40401   0.75196   0.50716   0.00000  Uiso   1.00
C928   C     0.39463   0.92212   0.20962   0.00000  Uiso   1.00
C929   C     0.35921   0.90787   0.21435   0.00000  Uiso   1.00
C930   C     0.37616   0.94743   0.13030   0.00000  Uiso   1.00
C931   C     0.33972   0.93070   0.13396   0.00000  Uiso   1.00
C932   C     0.43978   0.96689   0.17021   0.00000  Uiso   1.00
C933   C     0.40445   0.94330   0.16760   0.00000  Uiso   1.00
C934   C     0.29845   0.88466   0.17582   0.00000  Uiso   1.00
C935   C     0.33114   0.90967   0.17519   0.00000  Uiso   1.00
C936   C     0.39906   0.92235   0.45523   0.00000  Uiso   1.00
C937   C     0.36351   0.90613   0.45770   0.00000  Uiso   1.00
C938   C     0.38023   0.94652   0.37315   0.00000  Uiso   1.00
C939   C     0.34590   0.92793   0.37713   0.00000  Uiso   1.00
C940   C     0.44371   0.96509   0.41459   0.00000  Uiso   1.00
C941   C     0.40815   0.94489   0.41382   0.00000  Uiso   1.00
C942   C     0.30210   0.88514   0.41862   0.00000  Uiso   1.00
C943   C     0.33674   0.90845   0.41871   0.00000  Uiso   1.00
C944   C     0.30901   0.80031   0.04135   0.00000  Uiso   1.00
C945   C     0.39220   0.92465   0.71369   0.00000  Uiso   1.00
C946   C     0.35614   0.90948   0.72038   0.00000  Uiso   1.00
C947   C     0.37670   0.94691   0.63167   0.00000  Uiso   1.00
C948   C     0.34114   0.92992   0.63369   0.00000  Uiso   1.00
C949   C     0.44141   0.96317   0.66933   0.00000  Uiso   1.00
C950   C     0.40295   0.94479   0.67091   0.00000  Uiso   1.00
C951   C     0.29553   0.88905   0.67799   0.00000  Uiso   1.00
C952   C     0.33045   0.91096   0.67825   0.00000  Uiso   1.00
C953   C     0.39259   0.92857   0.96455   0.00000  Uiso   1.00
C954   C     0.35550   0.91139   0.96555   0.00000  Uiso   1.00
C955   C     0.38077   0.94561   0.87743   0.00000  Uiso   1.00
C956   C     0.34395   0.92879   0.87894   0.00000  Uiso   1.00
C957   C     0.44118   0.96580   0.92126   0.00000  Uiso   1.00
C958   C     0.40359   0.94638   0.92061   0.00000  Uiso   1.00
C959   C     0.29730   0.88562   0.92454   0.00000  Uiso   1.00
C960   C     0.33116   0.91039   0.92410   0.00000  Uiso   1.00
C961   C     0.59905   0.08821   0.08514   0.00000  Uiso   1.00
C962   C     0.63741   0.10400   0.09232   0.00000  Uiso   1.00
C963   C     0.55377   0.04626   0.04376   0.00000  Uiso   1.00
C964   C     0.58896   0.06800   0.04319   0.00000  Uiso   1.00
C965   C     0.69699   0.12713   0.05028   0.00000  Uiso   1.00
C966   C     0.66214   0.10503   0.05034   0.00000  Uiso   1.00
C967   C     0.60272   0.08505   0.33383   0.00000  Uiso   1.00
C968   C     0.63970   0.10268   0.33791   0.00000  Uiso   1.00
C969   C     0.61830   0.06562   0.25097   0.00000  Uiso   1.00
C970   C     0.65141   0.08697   0.25142   0.00000  Uiso   1.00
C971   C     0.55875   0.04271   0.29466   0.00000  Uiso   1.00
C972   C     0.59394   0.06484   0.29242   0.00000  Uiso   1.00
C973   C     0.70077   0.12512   0.29527   0.00000  Uiso   1.00
C974   C     0.66431   0.10469   0.29524   0.00000  Uiso   1.00
C975   C     0.65077   0.08588   0.00642   0.00000  Uiso   1.00
C976   C     0.61808   0.06466   0.00583   0.00000  Uiso   1.00
C977   C     0.64765   0.08819   0.50463   0.00000  Uiso   1.00
C978   C     0.61002   0.07204   0.59440   0.00000  Uiso   1.00
C979   C     0.64443   0.09139   0.59535   0.00000  Uiso   1.00
C980   C     0.55734   0.03912   0.54819   0.00000  Uiso   1.00
C981   C     0.59394   0.05938   0.54976   0.00000  Uiso   1.00
C982   C     0.70072   0.12106   0.55013   0.00000  Uiso   1.00
C983   C     0.66377   0.09964   0.55010   0.00000  Uiso   1.00
C984   C     0.60501   0.08165   0.83783   0.00000  Uiso   1.00
C985   C     0.64006   0.10068   0.84076   0.00000  Uiso   1.00
C986   C     0.62272   0.05644   0.75915   0.00000  Uiso   1.00
C987   C     0.65560   0.07824   0.75987   0.00000  Uiso   1.00
C988   C     0.55983   0.03823   0.79823   0.00000  Uiso   1.00
C989   C     0.59675   0.05848   0.79894   0.00000  Uiso   1.00
C990   C     0.69756   0.12718   0.79858   0.00000  Uiso   1.00
C991   C     0.66489   0.09988   0.79940   0.00000  Uiso   1.00
C992   C     0.61620   0.06466   0.50408   0.00000  Uiso   1.00
C993   C     0.59558   0.39517   0.29205   0.00000  Uiso   1.00
C994   C     0.55767   0.37502   0.29298   0.00000  Uiso   1.00
C995   C     0.63324   0.22296   0.13038   0.00000  Uiso   1.00
C996   C     0.59855   0.24148   0.12978   0.00000  Uiso   1.00
C997   C     0.59508   0.38850   0.04273   0.00000  Uiso   1.00
C998   C     0.65705   0.22655   0.17205   0.00000  Uiso   1.00
C999   C     0.55254   0.28467   0.16677   0.00000  Uiso   1.00
C1000  C     0.58758   0.26235   0.17058   0.00000  Uiso   1.00
C1001  C     0.64545   0.24955   0.21259   0.00000  Uiso   1.00
C1002  C     0.60975   0.26633   0.21154   0.00000  Uiso   1.00
C1003  C     0.56006   0.36480   0.04210   0.00000  Uiso   1.00
C1004  C     0.62567   0.21834   0.37649   0.00000  Uiso   1.00
C1005  C     0.58804   0.23367   0.38021   0.00000  Uiso   1.00
C1006  C     0.65186   0.22126   0.41676   0.00000  Uiso   1.00
C1007  C     0.54654   0.27890   0.41631   0.00000  Uiso   1.00
C1008  C     0.57779   0.25394   0.42105   0.00000  Uiso   1.00
C1009  C     0.63954   0.23744   0.45935   0.00000  Uiso   1.00
C1010  C     0.60245   0.25379   0.46114   0.00000  Uiso   1.00
C1011  C     0.62233   0.39421   0.25070   0.00000  Uiso   1.00
C1012  C     0.62435   0.38395   0.00756   0.00000  Uiso   1.00
C1013  C     0.69198   0.20655   0.17458   0.00000  Uiso   1.00
C1014  C     0.68989   0.20125   0.41956   0.00000  Uiso   1.00
C1015  C     0.59526   0.39140   0.54310   0.00000  Uiso   1.00
C1016  C     0.55407   0.37786   0.79586   0.00000  Uiso   1.00
C1017  C     0.62768   0.22049   0.63051   0.00000  Uiso   1.00
C1018  C     0.59140   0.23849   0.63477   0.00000  Uiso   1.00
C1019  C     0.65425   0.22118   0.67179   0.00000  Uiso   1.00
C1020  C     0.55417   0.28848   0.67357   0.00000  Uiso   1.00
C1021  C     0.58611   0.26238   0.67565   0.00000  Uiso   1.00
C1022  C     0.64547   0.24175   0.71442   0.00000  Uiso   1.00
C1023  C     0.61017   0.25972   0.71712   0.00000  Uiso   1.00
C1024  C     0.55992   0.36820   0.54152   0.00000  Uiso   1.00
C1025  C     0.62960   0.22399   0.87436   0.00000  Uiso   1.00
C1026  C     0.59420   0.24320   0.87537   0.00000  Uiso   1.00
C1027  C     0.65371   0.21976   0.91534   0.00000  Uiso   1.00
C1028  C     0.54652   0.28010   0.91981   0.00000  Uiso   1.00
C1029  C     0.58180   0.25663   0.92077   0.00000  Uiso   1.00
C1030  C     0.64148   0.23651   0.96010   0.00000  Uiso   1.00
C1031  C     0.60435   0.25214   0.96531   0.00000  Uiso   1.00
C1032  C     0.62680   0.38642   0.50874   0.00000  Uiso   1.00
C1033  C     0.69089   0.20237   0.67280   0.00000  Uiso   1.00
C1034  C     0.61845   0.39373   0.75784   0.00000  Uiso   1.00
C1035  C     0.59323   0.39443   0.79988   0.00000  Uiso   1.00
C1036  C     0.69250   0.20419   0.91634   0.00000  Uiso   1.00
C1037  C     0.57737   0.59279   0.17684   0.00000  Uiso   1.00
C1038  C     0.60836   0.59309   0.46978   0.00000  Uiso   1.00
C1039  C     0.62593   0.55310   0.13390   0.00000  Uiso   1.00
C1040  C     0.58806   0.56992   0.13608   0.00000  Uiso   1.00
C1041  C     0.63362   0.43337   0.08656   0.00000  Uiso   1.00
C1042  C     0.68754   0.53238   0.17991   0.00000  Uiso   1.00
C1043  C     0.64990   0.55254   0.17686   0.00000  Uiso   1.00
C1044  C     0.60020   0.41189   0.08365   0.00000  Uiso   1.00
C1045  C     0.63805   0.57412   0.21703   0.00000  Uiso   1.00
C1046  C     0.64278   0.57425   0.46974   0.00000  Uiso   1.00
C1047  C     0.69935   0.45203   0.05589   0.00000  Uiso   1.00
C1048  C     0.66431   0.42796   0.05213   0.00000  Uiso   1.00
C1049  C     0.62752   0.54903   0.38853   0.00000  Uiso   1.00
C1050  C     0.59604   0.57289   0.38612   0.00000  Uiso   1.00
C1051  C     0.64175   0.43038   0.33953   0.00000  Uiso   1.00
C1052  C     0.69267   0.53496   0.42763   0.00000  Uiso   1.00
C1053  C     0.65369   0.55239   0.42918   0.00000  Uiso   1.00
C1054  C     0.65635   0.41201   0.25538   0.00000  Uiso   1.00
C1055  C     0.60282   0.59289   0.21926   0.00000  Uiso   1.00
C1056  C     0.69902   0.45542   0.30158   0.00000  Uiso   1.00
C1057  C     0.66623   0.43103   0.29991   0.00000  Uiso   1.00
C1058  C     0.65873   0.40262   0.01268   0.00000  Uiso   1.00
C1059  C     0.60864   0.40929   0.33828   0.00000  Uiso   1.00
C1060  C     0.58558   0.59490   0.42684   0.00000  Uiso   1.00
C1061  C     0.65449   0.41373   0.75925   0.00000  Uiso   1.00
C1062  C     0.60224   0.41491   0.58393   0.00000  Uiso   1.00
C1063  C     0.62561   0.54974   0.63643   0.00000  Uiso   1.00
C1064  C     0.58445   0.59404   0.92407   0.00000  Uiso   1.00
C1065  C     0.59114   0.57026   0.63773   0.00000  Uiso   1.00
C1066  C     0.63706   0.43384   0.58949   0.00000  Uiso   1.00
C1067  C     0.69109   0.53576   0.67474   0.00000  Uiso   1.00
C1068  C     0.65425   0.55475   0.67470   0.00000  Uiso   1.00
C1069  C     0.64582   0.57767   0.71437   0.00000  Uiso   1.00
C1070  C     0.70160   0.45597   0.55340   0.00000  Uiso   1.00
C1071  C     0.66649   0.43123   0.55223   0.00000  Uiso   1.00
C1072  C     0.63007   0.55445   0.87995   0.00000  Uiso   1.00
C1073  C     0.59494   0.57430   0.88238   0.00000  Uiso   1.00
C1074  C     0.63833   0.43390   0.84349   0.00000  Uiso   1.00
C1075  C     0.69303   0.53551   0.92497   0.00000  Uiso   1.00
C1076  C     0.65578   0.55574   0.92158   0.00000  Uiso   1.00
C1077  C     0.60533   0.41372   0.84175   0.00000  Uiso   1.00
C1078  C     0.64658   0.57935   0.96149   0.00000  Uiso   1.00
C1079  C     0.69838   0.45953   0.80320   0.00000  Uiso   1.00
C1080  C     0.66348   0.43540   0.80202   0.00000  Uiso   1.00
C1081  C     0.61032   0.59674   0.96345   0.00000  Uiso   1.00
C1082  C     0.66023   0.40681   0.51237   0.00000  Uiso   1.00
C1083  C     0.61269   0.59736   0.71663   0.00000  Uiso   1.00
C1084  C     0.58540   0.59444   0.67737   0.00000  Uiso   1.00
C1085  C     0.69655   0.78987   0.04160   0.00000  Uiso   1.00
C1086  C     0.54499   0.61701   0.17247   0.00000  Uiso   1.00
C1087  C     0.61376   0.73498   0.08274   0.00000  Uiso   1.00
C1088  C     0.64878   0.75158   0.08111   0.00000  Uiso   1.00
C1089  C     0.55323   0.71439   0.04649   0.00000  Uiso   1.00
C1090  C     0.58699   0.73735   0.04437   0.00000  Uiso   1.00
C1091  C     0.65992   0.77058   0.03838   0.00000  Uiso   1.00
C1092  C     0.55136   0.61928   0.42518   0.00000  Uiso   1.00
C1093  C     0.61603   0.73279   0.33751   0.00000  Uiso   1.00
C1094  C     0.65395   0.74628   0.33341   0.00000  Uiso   1.00
C1095  C     0.60311   0.75277   0.25063   0.00000  Uiso   1.00
C1096  C     0.63754   0.77175   0.25320   0.00000  Uiso   1.00
C1097  C     0.55618   0.71280   0.29693   0.00000  Uiso   1.00
C1098  C     0.59168   0.73252   0.29414   0.00000  Uiso   1.00
C1099  C     0.66395   0.76670   0.29235   0.00000  Uiso   1.00
C1100  C     0.69812   0.78904   0.29267   0.00000  Uiso   1.00
C1101  C     0.59673   0.75954   0.00208   0.00000  Uiso   1.00
C1102  C     0.69615   0.78926   0.79600   0.00000  Uiso   1.00
C1103  C     0.55184   0.61901   0.67549   0.00000  Uiso   1.00
C1104  C     0.61500   0.73388   0.59088   0.00000  Uiso   1.00
C1105  C     0.65110   0.75160   0.58939   0.00000  Uiso   1.00
C1106  C     0.55391   0.71162   0.55110   0.00000  Uiso   1.00
C1107  C     0.58821   0.73496   0.55066   0.00000  Uiso   1.00
C1108  C     0.66141   0.77042   0.54743   0.00000  Uiso   1.00
C1109  C     0.54763   0.61600   0.92448   0.00000  Uiso   1.00
C1110  C     0.61238   0.73398   0.84230   0.00000  Uiso   1.00
C1111  C     0.64917   0.74899   0.83872   0.00000  Uiso   1.00
C1112  C     0.59637   0.75656   0.76017   0.00000  Uiso   1.00
C1113  C     0.63202   0.77234   0.75780   0.00000  Uiso   1.00
C1114  C     0.54965   0.71174   0.79937   0.00000  Uiso   1.00
C1115  C     0.58484   0.73605   0.80164   0.00000  Uiso   1.00
C1116  C     0.65984   0.76837   0.79644   0.00000  Uiso   1.00
C1117  C     0.69877   0.79116   0.54464   0.00000  Uiso   1.00
C1118  C     0.63436   0.77260   0.50693   0.00000  Uiso   1.00
C1119  C     0.59842   0.75527   0.50665   0.00000  Uiso   1.00
C1120  C     0.63422   0.77500   0.99801   0.00000  Uiso   1.00
C1121  C     0.62643   0.88343   0.13149   0.00000  Uiso   1.00
C1122  C     0.58943   0.89869   0.13186   0.00000  Uiso   1.00
C1123  C     0.69099   0.86887   0.17358   0.00000  Uiso   1.00
C1124  C     0.65337   0.88774   0.17154   0.00000  Uiso   1.00
C1125  C     0.54608   0.94482   0.17001   0.00000  Uiso   1.00
C1126  C     0.57937   0.92066   0.17289   0.00000  Uiso   1.00
C1127  C     0.63908   0.90467   0.21311   0.00000  Uiso   1.00
C1128  C     0.60482   0.92154   0.21304   0.00000  Uiso   1.00
C1129  C     0.62510   0.88250   0.38786   0.00000  Uiso   1.00
C1130  C     0.59235   0.90199   0.39111   0.00000  Uiso   1.00
C1131  C     0.69150   0.86704   0.42220   0.00000  Uiso   1.00
C1132  C     0.65339   0.88448   0.42474   0.00000  Uiso   1.00
C1133  C     0.55180   0.94988   0.43017   0.00000  Uiso   1.00
C1134  C     0.58510   0.92395   0.43199   0.00000  Uiso   1.00
C1135  C     0.64774   0.90709   0.46707   0.00000  Uiso   1.00
C1136  C     0.61163   0.92609   0.46878   0.00000  Uiso   1.00
C1137  C     0.62745   0.88069   0.62733   0.00000  Uiso   1.00
C1138  C     0.59220   0.89966   0.62867   0.00000  Uiso   1.00
C1139  C     0.69053   0.86357   0.66924   0.00000  Uiso   1.00
C1140  C     0.65173   0.88224   0.66932   0.00000  Uiso   1.00
C1141  C     0.54853   0.94444   0.67061   0.00000  Uiso   1.00
C1142  C     0.58262   0.91859   0.67268   0.00000  Uiso   1.00
C1143  C     0.64096   0.89727   0.71294   0.00000  Uiso   1.00
C1144  C     0.60718   0.91582   0.71536   0.00000  Uiso   1.00
C1145  C     0.62308   0.88242   0.88850   0.00000  Uiso   1.00
C1146  C     0.58788   0.90261   0.88758   0.00000  Uiso   1.00
C1147  C     0.68973   0.86884   0.92676   0.00000  Uiso   1.00
C1148  C     0.65149   0.88757   0.92824   0.00000  Uiso   1.00
C1149  C     0.54697   0.94965   0.92490   0.00000  Uiso   1.00
C1150  C     0.58034   0.92618   0.92630   0.00000  Uiso   1.00
C1151  C     0.64300   0.91059   0.96718   0.00000  Uiso   1.00
C1152  C     0.60588   0.92920   0.96903   0.00000  Uiso   1.00
C1153  C     0.80409   0.12212   0.04334   0.00000  Uiso   1.00
C1154  C     0.84012   0.10034   0.04243   0.00000  Uiso   1.00
C1155  C     0.94785   0.04416   0.04653   0.00000  Uiso   1.00
C1156  C     0.91258   0.06583   0.04677   0.00000  Uiso   1.00
C1157  C     0.84863   0.07814   0.08313   0.00000  Uiso   1.00
C1158  C     0.88449   0.06056   0.08392   0.00000  Uiso   1.00
C1159  C     0.87612   0.11251   0.25648   0.00000  Uiso   1.00
C1160  C     0.90906   0.09165   0.25650   0.00000  Uiso   1.00
C1161  C     0.80874   0.12704   0.29206   0.00000  Uiso   1.00
C1162  C     0.84547   0.10796   0.29169   0.00000  Uiso   1.00
C1163  C     0.94954   0.04646   0.29603   0.00000  Uiso   1.00
C1164  C     0.91589   0.06778   0.29599   0.00000  Uiso   1.00
C1165  C     0.85609   0.08734   0.33481   0.00000  Uiso   1.00
C1166  C     0.88955   0.06640   0.33582   0.00000  Uiso   1.00
C1167  C     0.86923   0.10776   0.00566   0.00000  Uiso   1.00
C1168  C     0.90470   0.08855   0.00746   0.00000  Uiso   1.00
C1169  C     0.80488   0.12228   0.54539   0.00000  Uiso   1.00
C1170  C     0.84056   0.10029   0.54473   0.00000  Uiso   1.00
C1171  C     0.94624   0.03938   0.54998   0.00000  Uiso   1.00
C1172  C     0.91027   0.06104   0.54934   0.00000  Uiso   1.00
C1173  C     0.84969   0.08277   0.58877   0.00000  Uiso   1.00
C1174  C     0.88584   0.06468   0.59059   0.00000  Uiso   1.00
C1175  C     0.87290   0.10574   0.75042   0.00000  Uiso   1.00
C1176  C     0.90725   0.08451   0.75190   0.00000  Uiso   1.00
C1177  C     0.80979   0.12531   0.79482   0.00000  Uiso   1.00
C1178  C     0.84640   0.10408   0.79295   0.00000  Uiso   1.00
C1179  C     0.94948   0.04197   0.79385   0.00000  Uiso   1.00
C1180  C     0.91682   0.06566   0.79442   0.00000  Uiso   1.00
C1181  C     0.85770   0.08428   0.83604   0.00000  Uiso   1.00
C1182  C     0.89392   0.06611   0.83866   0.00000  Uiso   1.00
C1183  C     0.86663   0.09931   0.50377   0.00000  Uiso   1.00
C1184  C     0.90058   0.07977   0.50574   0.00000  Uiso   1.00
C1185  C     0.88558   0.27133   0.21166   0.00000  Uiso   1.00
C1186  C     0.84950   0.25474   0.21357   0.00000  Uiso   1.00
C1187  C     0.87587   0.28429   0.12592   0.00000  Uiso   1.00
C1188  C     0.84010   0.26609   0.12635   0.00000  Uiso   1.00
C1189  C     0.93626   0.30787   0.16927   0.00000  Uiso   1.00
C1190  C     0.89940   0.28628   0.16702   0.00000  Uiso   1.00
C1191  C     0.79439   0.22280   0.16724   0.00000  Uiso   1.00
C1192  C     0.82821   0.24912   0.16857   0.00000  Uiso   1.00
C1193  C     0.95230   0.38080   0.04830   0.00000  Uiso   1.00
C1194  C     0.89187   0.26237   0.46986   0.00000  Uiso   1.00
C1195  C     0.85885   0.24123   0.46951   0.00000  Uiso   1.00
C1196  C     0.87798   0.28403   0.38559   0.00000  Uiso   1.00
C1197  C     0.84121   0.26624   0.38672   0.00000  Uiso   1.00
C1198  C     0.93874   0.30558   0.42525   0.00000  Uiso   1.00
C1199  C     0.90305   0.28303   0.42739   0.00000  Uiso   1.00
C1200  C     0.80122   0.21672   0.42226   0.00000  Uiso   1.00
C1201  C     0.83329   0.24304   0.42801   0.00000  Uiso   1.00
C1202  C     0.94916   0.37461   0.29225   0.00000  Uiso   1.00
C1203  C     0.88869   0.39748   0.09212   0.00000  Uiso   1.00
C1204  C     0.90085   0.25186   0.70596   0.00000  Uiso   1.00
C1205  C     0.86710   0.23204   0.70462   0.00000  Uiso   1.00
C1206  C     0.88086   0.27734   0.62647   0.00000  Uiso   1.00
C1207  C     0.84607   0.26021   0.62823   0.00000  Uiso   1.00
C1208  C     0.94251   0.29605   0.66601   0.00000  Uiso   1.00
C1209  C     0.90829   0.27423   0.66516   0.00000  Uiso   1.00
C1210  C     0.80080   0.21729   0.67331   0.00000  Uiso   1.00
C1211  C     0.83752   0.23704   0.66865   0.00000  Uiso   1.00
C1212  C     0.95072   0.38008   0.54305   0.00000  Uiso   1.00
C1213  C     0.89394   0.26121   0.96517   0.00000  Uiso   1.00
C1214  C     0.85809   0.24124   0.96626   0.00000  Uiso   1.00
C1215  C     0.87958   0.27941   0.87877   0.00000  Uiso   1.00
C1216  C     0.84464   0.25904   0.88345   0.00000  Uiso   1.00
C1217  C     0.94227   0.29608   0.91953   0.00000  Uiso   1.00
C1218  C     0.90567   0.27797   0.92001   0.00000  Uiso   1.00
C1219  C     0.80172   0.21586   0.92248   0.00000  Uiso   1.00
C1220  C     0.83531   0.23888   0.92448   0.00000  Uiso   1.00
C1221  C     0.94876   0.37465   0.79786   0.00000  Uiso   1.00
C1222  C     0.91591   0.39879   0.79856   0.00000  Uiso   1.00
C1223  C     0.89101   0.39935   0.84245   0.00000  Uiso   1.00
C1224  C     0.83489   0.57243   0.42593   0.00000  Uiso   1.00
C1225  C     0.86180   0.57231   0.21632   0.00000  Uiso   1.00
C1226  C     0.90746   0.42486   0.25562   0.00000  Uiso   1.00
C1227  C     0.89680   0.59076   0.46013   0.00000  Uiso   1.00
C1228  C     0.85857   0.42217   0.34083   0.00000  Uiso   1.00
C1229  C     0.85431   0.41778   0.09075   0.00000  Uiso   1.00
C1230  C     0.89652   0.59257   0.21261   0.00000  Uiso   1.00
C1231  C     0.84410   0.59184   0.38368   0.00000  Uiso   1.00
C1232  C     0.90761   0.42639   0.01530   0.00000  Uiso   1.00
C1233  C     0.80799   0.46149   0.04689   0.00000  Uiso   1.00
C1234  C     0.84517   0.44040   0.04870   0.00000  Uiso   1.00
C1235  C     0.83977   0.59635   0.13849   0.00000  Uiso   1.00
C1236  C     0.80098   0.54716   0.42422   0.00000  Uiso   1.00
C1237  C     0.79844   0.54873   0.17779   0.00000  Uiso   1.00
C1238  C     0.83240   0.57444   0.17971   0.00000  Uiso   1.00
C1239  C     0.87243   0.44380   0.25588   0.00000  Uiso   1.00
C1240  C     0.86166   0.57246   0.46501   0.00000  Uiso   1.00
C1241  C     0.80903   0.46171   0.29957   0.00000  Uiso   1.00
C1242  C     0.84600   0.43918   0.29640   0.00000  Uiso   1.00
C1243  C     0.87322   0.44380   0.01080   0.00000  Uiso   1.00
C1244  C     0.91644   0.40281   0.05249   0.00000  Uiso   1.00
C1245  C     0.91611   0.40128   0.29577   0.00000  Uiso   1.00
C1246  C     0.89362   0.40169   0.33955   0.00000  Uiso   1.00
C1247  C     0.90485   0.42505   0.50277   0.00000  Uiso   1.00
C1248  C     0.87259   0.44482   0.50639   0.00000  Uiso   1.00
C1249  C     0.79739   0.55169   0.93133   0.00000  Uiso   1.00
C1250  C     0.89191   0.59498   0.97586   0.00000  Uiso   1.00
C1251  C     0.85941   0.42391   0.59068   0.00000  Uiso   1.00
C1252  C     0.84143   0.59804   0.89632   0.00000  Uiso   1.00
C1253  C     0.83196   0.57677   0.93717   0.00000  Uiso   1.00
C1254  C     0.84185   0.59718   0.63059   0.00000  Uiso   1.00
C1255  C     0.85367   0.58563   0.71762   0.00000  Uiso   1.00
C1256  C     0.81013   0.46361   0.55067   0.00000  Uiso   1.00
C1257  C     0.84606   0.44180   0.54735   0.00000  Uiso   1.00
C1258  C     0.85784   0.41969   0.84118   0.00000  Uiso   1.00
C1259  C     0.79961   0.55589   0.67849   0.00000  Uiso   1.00
C1260  C     0.82981   0.58180   0.67584   0.00000  Uiso   1.00
C1261  C     0.87419   0.44218   0.75892   0.00000  Uiso   1.00
C1262  C     0.85753   0.57536   0.97937   0.00000  Uiso   1.00
C1263  C     0.81041   0.45985   0.80049   0.00000  Uiso   1.00
C1264  C     0.84843   0.44086   0.79996   0.00000  Uiso   1.00
C1265  C     0.90705   0.42037   0.75643   0.00000  Uiso   1.00
C1266  C     0.89468   0.40597   0.58927   0.00000  Uiso   1.00
C1267  C     0.91611   0.40440   0.54507   0.00000  Uiso   1.00
C1268  C     0.85341   0.74849   0.00491   0.00000  Uiso   1.00
C1269  C     0.87406   0.61870   0.13687   0.00000  Uiso   1.00
C1270  C     0.90188   0.61586   0.17150   0.00000  Uiso   1.00
C1271  C     0.90533   0.61253   0.41781   0.00000  Uiso   1.00
C1272  C     0.88923   0.73163   0.00333   0.00000  Uiso   1.00
C1273  C     0.93992   0.63452   0.16908   0.00000  Uiso   1.00
C1274  C     0.80478   0.78565   0.29770   0.00000  Uiso   1.00
C1275  C     0.84264   0.76925   0.04605   0.00000  Uiso   1.00
C1276  C     0.94980   0.71137   0.04583   0.00000  Uiso   1.00
C1277  C     0.91460   0.73278   0.04498   0.00000  Uiso   1.00
C1278  C     0.86761   0.77282   0.08765   0.00000  Uiso   1.00
C1279  C     0.90253   0.75198   0.08801   0.00000  Uiso   1.00
C1280  C     0.94231   0.63232   0.41651   0.00000  Uiso   1.00
C1281  C     0.84945   0.74262   0.25439   0.00000  Uiso   1.00
C1282  C     0.88289   0.72487   0.25124   0.00000  Uiso   1.00
C1283  C     0.84285   0.76575   0.29422   0.00000  Uiso   1.00
C1284  C     0.94973   0.71122   0.28453   0.00000  Uiso   1.00
C1285  C     0.91339   0.73223   0.28531   0.00000  Uiso   1.00
C1286  C     0.87294   0.77162   0.33072   0.00000  Uiso   1.00
C1287  C     0.90871   0.75626   0.32295   0.00000  Uiso   1.00
C1288  C     0.80628   0.78870   0.04827   0.00000  Uiso   1.00
C1289  C     0.87829   0.61362   0.37855   0.00000  Uiso   1.00
C1290  C     0.87459   0.62007   0.89694   0.00000  Uiso   1.00
C1291  C     0.87843   0.61382   0.62711   0.00000  Uiso   1.00
C1292  C     0.90410   0.61496   0.67063   0.00000  Uiso   1.00
C1293  C     0.94373   0.63086   0.66800   0.00000  Uiso   1.00
C1294  C     0.90122   0.61639   0.93334   0.00000  Uiso   1.00
C1295  C     0.83912   0.76003   0.54664   0.00000  Uiso   1.00
C1296  C     0.94839   0.70769   0.54604   0.00000  Uiso   1.00
C1297  C     0.91147   0.72748   0.54552   0.00000  Uiso   1.00
C1298  C     0.86226   0.76021   0.58960   0.00000  Uiso   1.00
C1299  C     0.89881   0.74558   0.58939   0.00000  Uiso   1.00
C1300  C     0.94126   0.63160   0.92827   0.00000  Uiso   1.00
C1301  C     0.85050   0.74324   0.75512   0.00000  Uiso   1.00
C1302  C     0.88714   0.72742   0.75507   0.00000  Uiso   1.00
C1303  C     0.84187   0.76801   0.79336   0.00000  Uiso   1.00
C1304  C     0.94968   0.70673   0.79586   0.00000  Uiso   1.00
C1305  C     0.91433   0.73128   0.79436   0.00000  Uiso   1.00
C1306  C     0.87144   0.77455   0.83001   0.00000  Uiso   1.00
C1307  C     0.90736   0.75676   0.83015   0.00000  Uiso   1.00
C1308  C     0.80468   0.78275   0.54807   0.00000  Uiso   1.00
C1309  C     0.80505   0.78748   0.79594   0.00000  Uiso   1.00
C1310  C     0.85021   0.73842   0.50633   0.00000  Uiso   1.00
C1311  C     0.88753   0.72572   0.50401   0.00000  Uiso   1.00
C1312  C     0.88965   0.60270   0.71592   0.00000  Uiso   1.00
C1313  C     0.89412   0.93138   0.21110   0.00000  Uiso   1.00
C1314  C     0.85940   0.90998   0.21255   0.00000  Uiso   1.00
C1315  C     0.87480   0.94828   0.12667   0.00000  Uiso   1.00
C1316  C     0.84309   0.92608   0.13028   0.00000  Uiso   1.00
C1317  C     0.93941   0.96889   0.16651   0.00000  Uiso   1.00
C1318  C     0.90142   0.95055   0.16873   0.00000  Uiso   1.00
C1319  C     0.80108   0.88159   0.17012   0.00000  Uiso   1.00
C1320  C     0.83449   0.90555   0.17151   0.00000  Uiso   1.00
C1321  C     0.89501   0.92480   0.46053   0.00000  Uiso   1.00
C1322  C     0.86075   0.90406   0.46236   0.00000  Uiso   1.00
C1323  C     0.87855   0.94593   0.37557   0.00000  Uiso   1.00
C1324  C     0.84443   0.92357   0.37668   0.00000  Uiso   1.00
C1325  C     0.94190   0.96724   0.41757   0.00000  Uiso   1.00
C1326  C     0.90465   0.94411   0.41764   0.00000  Uiso   1.00
C1327  C     0.80194   0.87816   0.42419   0.00000  Uiso   1.00
C1328  C     0.83466   0.90385   0.42280   0.00000  Uiso   1.00
C1329  C     0.89158   0.92646   0.71517   0.00000  Uiso   1.00
C1330  C     0.85452   0.91107   0.71989   0.00000  Uiso   1.00
C1331  C     0.87489   0.94648   0.63059   0.00000  Uiso   1.00
C1332  C     0.84053   0.92626   0.63277   0.00000  Uiso   1.00
C1333  C     0.93966   0.96422   0.66730   0.00000  Uiso   1.00
C1334  C     0.90112   0.94700   0.67162   0.00000  Uiso   1.00
C1335  C     0.79959   0.88201   0.67723   0.00000  Uiso   1.00
C1336  C     0.83057   0.90926   0.67734   0.00000  Uiso   1.00
C1337  C     0.89544   0.92743   0.96193   0.00000  Uiso   1.00
C1338  C     0.86130   0.90699   0.96370   0.00000  Uiso   1.00
C1339  C     0.87899   0.94756   0.87795   0.00000  Uiso   1.00
C1340  C     0.84411   0.92682   0.87961   0.00000  Uiso   1.00
C1341  C     0.94370   0.96385   0.91435   0.00000  Uiso   1.00
C1342  C     0.90505   0.94620   0.91867   0.00000  Uiso   1.00
C1343  C     0.80058   0.88154   0.92366   0.00000  Uiso   1.00
C1344  C     0.83485   0.90549   0.92300   0.00000  Uiso   1.00
O1345  O     0.03993   0.03447   0.00227   0.00000  Uiso   1.00
O1346  O     0.20920   0.19519   0.37889   0.00000  Uiso   1.00
O1347  O     0.03979   0.03531   0.24854   0.00000  Uiso   1.00
O1348  O     0.20954   0.13583   0.00229   0.00000  Uiso   1.00
O1349  O     0.04449   0.03247   0.33541   0.00000  Uiso   1.00
O1350  O     0.21140   0.13413   0.34346   0.00000  Uiso   1.00
O1351  O     0.21325   0.13353   0.08828   0.00000  Uiso   1.00
O1352  O     0.20499   0.19033   0.46525   0.00000  Uiso   1.00
O1353  O     0.04550   0.03047   0.08749   0.00000  Uiso   1.00
O1354  O     0.20899   0.13641   0.25644   0.00000  Uiso   1.00
O1355  O     0.20386   0.18928   0.21524   0.00000  Uiso   1.00
O1356  O     0.20488   0.19130   0.12832   0.00000  Uiso   1.00
O1357  O     0.03985   0.03775   0.49841   0.00000  Uiso   1.00
O1358  O     0.21481   0.13068   0.50538   0.00000  Uiso   1.00
O1359  O     0.20728   0.19602   0.96186   0.00000  Uiso   1.00
O1360  O     0.03950   0.03769   0.75100   0.00000  Uiso   1.00
O1361  O     0.04365   0.03491   0.83812   0.00000  Uiso   1.00
O1362  O     0.21115   0.13550   0.59397   0.00000  Uiso   1.00
O1363  O     0.21451   0.13121   0.83963   0.00000  Uiso   1.00
O1364  O     0.04033   0.03824   0.58616   0.00000  Uiso   1.00
O1365  O     0.20918   0.13861   0.75336   0.00000  Uiso   1.00
O1366  O     0.20360   0.18859   0.71509   0.00000  Uiso   1.00
O1367  O     0.20504   0.19284   0.87538   0.00000  Uiso   1.00
O1368  O     0.20336   0.18890   0.62804   0.00000  Uiso   1.00
O1369  O     0.03739   0.36539   0.25611   0.00000  Uiso   1.00
O1370  O     0.04584   0.35951   0.34301   0.00000  Uiso   1.00
O1371  O     0.03401   0.29547   0.21193   0.00000  Uiso   1.00
O1372  O     0.04542   0.35989   0.08725   0.00000  Uiso   1.00
O1373  O     0.03373   0.28837   0.37863   0.00000  Uiso   1.00
O1374  O     0.03323   0.29078   0.12525   0.00000  Uiso   1.00
O1375  O     0.04094   0.30089   0.46302   0.00000  Uiso   1.00
O1376  O     0.03856   0.36705   0.00288   0.00000  Uiso   1.00
O1377  O     0.04623   0.35731   0.75157   0.00000  Uiso   1.00
O1378  O     0.04687   0.35762   0.83852   0.00000  Uiso   1.00
O1379  O     0.03850   0.29766   0.96754   0.00000  Uiso   1.00
O1380  O     0.04036   0.29546   0.62413   0.00000  Uiso   1.00
O1381  O     0.02888   0.28771   0.88302   0.00000  Uiso   1.00
O1382  O     0.03047   0.29103   0.71127   0.00000  Uiso   1.00
O1383  O     0.04794   0.35854   0.58781   0.00000  Uiso   1.00
O1384  O     0.04378   0.37092   0.50230   0.00000  Uiso   1.00
O1385  O     0.21422   0.46265   0.25044   0.00000  Uiso   1.00
O1386  O     0.21004   0.52995   0.12038   0.00000  Uiso   1.00
O1387  O     0.20556   0.52629   0.37315   0.00000  Uiso   1.00
O1388  O     0.20990   0.47058   0.33662   0.00000  Uiso   1.00
O1389  O     0.20421   0.52268   0.20734   0.00000  Uiso   1.00
O1390  O     0.20631   0.52329   0.45936   0.00000  Uiso   1.00
O1391  O     0.21381   0.46225   0.08848   0.00000  Uiso   1.00
O1392  O     0.21611   0.45828   0.00279   0.00000  Uiso   1.00
O1393  O     0.21623   0.45941   0.75579   0.00000  Uiso   1.00
O1394  O     0.20618   0.52587   0.87934   0.00000  Uiso   1.00
O1395  O     0.21370   0.46508   0.84054   0.00000  Uiso   1.00
O1396  O     0.20957   0.52457   0.62351   0.00000  Uiso   1.00
O1397  O     0.20278   0.51341   0.96281   0.00000  Uiso   1.00
O1398  O     0.20527   0.51820   0.70718   0.00000  Uiso   1.00
O1399  O     0.21200   0.46861   0.50080   0.00000  Uiso   1.00
O1400  O     0.22105   0.46341   0.58739   0.00000  Uiso   1.00
O1401  O     0.04140   0.70093   0.25011   0.00000  Uiso   1.00
O1402  O     0.03321   0.62632   0.12429   0.00000  Uiso   1.00
O1403  O     0.03602   0.62917   0.20887   0.00000  Uiso   1.00
O1404  O     0.03327   0.62777   0.37607   0.00000  Uiso   1.00
O1405  O     0.04633   0.69728   0.08834   0.00000  Uiso   1.00
O1406  O     0.04364   0.70058   0.33784   0.00000  Uiso   1.00
O1407  O     0.04179   0.63461   0.46014   0.00000  Uiso   1.00
O1408  O     0.03654   0.70831   0.00573   0.00000  Uiso   1.00
O1409  O     0.21506   0.79848   0.33947   0.00000  Uiso   1.00
O1410  O     0.04401   0.69446   0.75282   0.00000  Uiso   1.00
O1411  O     0.21603   0.79585   0.75230   0.00000  Uiso   1.00
O1412  O     0.03669   0.62355   0.88278   0.00000  Uiso   1.00
O1413  O     0.04215   0.62586   0.62233   0.00000  Uiso   1.00
O1414  O     0.03906   0.62525   0.70930   0.00000  Uiso   1.00
O1415  O     0.04607   0.69884   0.58661   0.00000  Uiso   1.00
O1416  O     0.04462   0.69385   0.83989   0.00000  Uiso   1.00
O1417  O     0.04124   0.63230   0.96843   0.00000  Uiso   1.00
O1418  O     0.04536   0.70072   0.50045   0.00000  Uiso   1.00
O1419  O     0.03920   0.96410   0.46243   0.00000  Uiso   1.00
O1420  O     0.03397   0.95828   0.12722   0.00000  Uiso   1.00
O1421  O     0.20754   0.86201   0.13186   0.00000  Uiso   1.00
O1422  O     0.03953   0.96870   0.21077   0.00000  Uiso   1.00
O1423  O     0.20470   0.85935   0.21608   0.00000  Uiso   1.00
O1424  O     0.21219   0.86502   0.46413   0.00000  Uiso   1.00
O1425  O     0.04029   0.96146   0.37431   0.00000  Uiso   1.00
O1426  O     0.20408   0.85389   0.37840   0.00000  Uiso   1.00
O1427  O     0.21607   0.80048   0.00854   0.00000  Uiso   1.00
O1428  O     0.21158   0.80351   0.09457   0.00000  Uiso   1.00
O1429  O     0.21182   0.80361   0.25268   0.00000  Uiso   1.00
O1430  O     0.03762   0.96141   0.62120   0.00000  Uiso   1.00
O1431  O     0.20778   0.86333   0.62735   0.00000  Uiso   1.00
O1432  O     0.03379   0.95997   0.70930   0.00000  Uiso   1.00
O1433  O     0.20475   0.85682   0.71121   0.00000  Uiso   1.00
O1434  O     0.20405   0.85924   0.96491   0.00000  Uiso   1.00
O1435  O     0.03957   0.96397   0.87615   0.00000  Uiso   1.00
O1436  O     0.20796   0.86403   0.87737   0.00000  Uiso   1.00
O1437  O     0.03129   0.96193   0.96405   0.00000  Uiso   1.00
O1438  O     0.21507   0.80541   0.50481   0.00000  Uiso   1.00
O1439  O     0.21395   0.80734   0.58986   0.00000  Uiso   1.00
O1440  O     0.21289   0.80040   0.83853   0.00000  Uiso   1.00
O1441  O     0.29642   0.13603   0.33808   0.00000  Uiso   1.00
O1442  O     0.28762   0.12870   0.25267   0.00000  Uiso   1.00
O1443  O     0.46467   0.03137   0.34230   0.00000  Uiso   1.00
O1444  O     0.29466   0.13947   0.08975   0.00000  Uiso   1.00
O1445  O     0.46223   0.02884   0.25460   0.00000  Uiso   1.00
O1446  O     0.46294   0.03607   0.08855   0.00000  Uiso   1.00
O1447  O     0.46183   0.03540   0.00200   0.00000  Uiso   1.00
O1448  O     0.29201   0.19854   0.21212   0.00000  Uiso   1.00
O1449  O     0.29252   0.13676   0.00267   0.00000  Uiso   1.00
O1450  O     0.46413   0.03270   0.50778   0.00000  Uiso   1.00
O1451  O     0.29574   0.14155   0.84051   0.00000  Uiso   1.00
O1452  O     0.46142   0.02868   0.84383   0.00000  Uiso   1.00
O1453  O     0.28861   0.13011   0.59000   0.00000  Uiso   1.00
O1454  O     0.28839   0.13409   0.75412   0.00000  Uiso   1.00
O1455  O     0.46195   0.03187   0.75745   0.00000  Uiso   1.00
O1456  O     0.46269   0.02797   0.59337   0.00000  Uiso   1.00
O1457  O     0.29539   0.13779   0.50425   0.00000  Uiso   1.00
O1458  O     0.28076   0.21087   0.12845   0.00000  Uiso   1.00
O1459  O     0.46980   0.37771   0.25020   0.00000  Uiso   1.00
O1460  O     0.45876   0.30501   0.37520   0.00000  Uiso   1.00
O1461  O     0.45160   0.31680   0.21261   0.00000  Uiso   1.00
O1462  O     0.46307   0.36586   0.33605   0.00000  Uiso   1.00
O1463  O     0.28667   0.20491   0.38144   0.00000  Uiso   1.00
O1464  O     0.45778   0.29861   0.12776   0.00000  Uiso   1.00
O1465  O     0.46173   0.36062   0.08480   0.00000  Uiso   1.00
O1466  O     0.45463   0.30868   0.46312   0.00000  Uiso   1.00
O1467  O     0.28222   0.20692   0.46674   0.00000  Uiso   1.00
O1468  O     0.28391   0.20729   0.63015   0.00000  Uiso   1.00
O1469  O     0.28210   0.20671   0.87880   0.00000  Uiso   1.00
O1470  O     0.45895   0.29799   0.87553   0.00000  Uiso   1.00
O1471  O     0.45335   0.31098   0.71084   0.00000  Uiso   1.00
O1472  O     0.45986   0.36043   0.83945   0.00000  Uiso   1.00
O1473  O     0.45897   0.29909   0.62475   0.00000  Uiso   1.00
O1474  O     0.46410   0.36346   0.58625   0.00000  Uiso   1.00
O1475  O     0.44831   0.31571   0.95646   0.00000  Uiso   1.00
O1476  O     0.46559   0.36989   0.75476   0.00000  Uiso   1.00
O1477  O     0.28493   0.20451   0.96670   0.00000  Uiso   1.00
O1478  O     0.28233   0.20780   0.71543   0.00000  Uiso   1.00
O1479  O     0.47021   0.36968   0.99740   0.00000  Uiso   1.00
O1480  O     0.46712   0.37049   0.50193   0.00000  Uiso   1.00
O1481  O     0.29125   0.47129   0.33414   0.00000  Uiso   1.00
O1482  O     0.28537   0.54005   0.37657   0.00000  Uiso   1.00
O1483  O     0.28233   0.53968   0.21289   0.00000  Uiso   1.00
O1484  O     0.28619   0.53617   0.46419   0.00000  Uiso   1.00
O1485  O     0.29283   0.46995   0.24852   0.00000  Uiso   1.00
O1486  O     0.28614   0.53927   0.12676   0.00000  Uiso   1.00
O1487  O     0.29870   0.47382   0.08031   0.00000  Uiso   1.00
O1488  O     0.29575   0.47347   0.83615   0.00000  Uiso   1.00
O1489  O     0.28406   0.53936   0.88061   0.00000  Uiso   1.00
O1490  O     0.29904   0.47497   0.58670   0.00000  Uiso   1.00
O1491  O     0.28774   0.53188   0.71998   0.00000  Uiso   1.00
O1492  O     0.28578   0.53152   0.96651   0.00000  Uiso   1.00
O1493  O     0.28895   0.46289   0.75185   0.00000  Uiso   1.00
O1494  O     0.28303   0.53991   0.63180   0.00000  Uiso   1.00
O1495  O     0.28880   0.46452   0.50227   0.00000  Uiso   1.00
O1496  O     0.29030   0.45677   0.99937   0.00000  Uiso   1.00
O1497  O     0.45827   0.64319   0.12817   0.00000  Uiso   1.00
O1498  O     0.46407   0.70083   0.08517   0.00000  Uiso   1.00
O1499  O     0.45410   0.64164   0.46743   0.00000  Uiso   1.00
O1500  O     0.28973   0.79729   0.25724   0.00000  Uiso   1.00
O1501  O     0.45745   0.63900   0.37955   0.00000  Uiso   1.00
O1502  O     0.46025   0.69603   0.34073   0.00000  Uiso   1.00
O1503  O     0.46672   0.70510   0.25649   0.00000  Uiso   1.00
O1504  O     0.45525   0.64382   0.21500   0.00000  Uiso   1.00
O1505  O     0.45942   0.69660   0.00033   0.00000  Uiso   1.00
O1506  O     0.45819   0.69525   0.84184   0.00000  Uiso   1.00
O1507  O     0.45841   0.69212   0.59080   0.00000  Uiso   1.00
O1508  O     0.45596   0.63649   0.63409   0.00000  Uiso   1.00
O1509  O     0.46444   0.70474   0.75726   0.00000  Uiso   1.00
O1510  O     0.45829   0.63555   0.96808   0.00000  Uiso   1.00
O1511  O     0.45621   0.63500   0.87975   0.00000  Uiso   1.00
O1512  O     0.45213   0.64249   0.71826   0.00000  Uiso   1.00
O1513  O     0.46332   0.70240   0.50819   0.00000  Uiso   1.00
O1514  O     0.45621   0.97580   0.45840   0.00000  Uiso   1.00
O1515  O     0.46340   0.97121   0.37294   0.00000  Uiso   1.00
O1516  O     0.29242   0.87109   0.46180   0.00000  Uiso   1.00
O1517  O     0.28802   0.87067   0.21847   0.00000  Uiso   1.00
O1518  O     0.45850   0.96882   0.21369   0.00000  Uiso   1.00
O1519  O     0.28625   0.87503   0.37554   0.00000  Uiso   1.00
O1520  O     0.28216   0.87589   0.13221   0.00000  Uiso   1.00
O1521  O     0.45418   0.97771   0.12688   0.00000  Uiso   1.00
O1522  O     0.29307   0.80677   0.08482   0.00000  Uiso   1.00
O1523  O     0.29536   0.80213   0.34351   0.00000  Uiso   1.00
O1524  O     0.28143   0.87498   0.96772   0.00000  Uiso   1.00
O1525  O     0.46156   0.96662   0.88051   0.00000  Uiso   1.00
O1526  O     0.45415   0.98075   0.96311   0.00000  Uiso   1.00
O1527  O     0.28811   0.87205   0.72007   0.00000  Uiso   1.00
O1528  O     0.45572   0.97639   0.71038   0.00000  Uiso   1.00
O1529  O     0.28901   0.86940   0.88234   0.00000  Uiso   1.00
O1530  O     0.27803   0.88134   0.63622   0.00000  Uiso   1.00
O1531  O     0.45946   0.96542   0.62622   0.00000  Uiso   1.00
O1532  O     0.29451   0.80736   0.83452   0.00000  Uiso   1.00
O1533  O     0.29860   0.81264   0.59078   0.00000  Uiso   1.00
O1534  O     0.29283   0.80242   0.50619   0.00000  Uiso   1.00
O1535  O     0.29364   0.80829   0.99931   0.00000  Uiso   1.00
O1536  O     0.29389   0.80164   0.74789   0.00000  Uiso   1.00
O1537  O     0.54815   0.03029   0.33852   0.00000  Uiso   1.00
O1538  O     0.71185   0.13923   0.33650   0.00000  Uiso   1.00
O1539  O     0.54094   0.03196   0.25210   0.00000  Uiso   1.00
O1540  O     0.53905   0.03715   0.00232   0.00000  Uiso   1.00
O1541  O     0.70201   0.18670   0.46157   0.00000  Uiso   1.00
O1542  O     0.70760   0.14174   0.09203   0.00000  Uiso   1.00
O1543  O     0.71347   0.13334   0.00620   0.00000  Uiso   1.00
O1544  O     0.54231   0.03357   0.08854   0.00000  Uiso   1.00
O1545  O     0.71483   0.13499   0.25354   0.00000  Uiso   1.00
O1546  O     0.70864   0.19685   0.21784   0.00000  Uiso   1.00
O1547  O     0.70860   0.19509   0.37637   0.00000  Uiso   1.00
O1548  O     0.70844   0.19592   0.62920   0.00000  Uiso   1.00
O1549  O     0.54685   0.02474   0.84070   0.00000  Uiso   1.00
O1550  O     0.54329   0.03028   0.75606   0.00000  Uiso   1.00
O1551  O     0.71240   0.13570   0.84091   0.00000  Uiso   1.00
O1552  O     0.71245   0.13516   0.75561   0.00000  Uiso   1.00
O1553  O     0.71253   0.13475   0.59201   0.00000  Uiso   1.00
O1554  O     0.54525   0.02208   0.59044   0.00000  Uiso   1.00
O1555  O     0.70912   0.19572   0.71574   0.00000  Uiso   1.00
O1556  O     0.53589   0.03965   0.50733   0.00000  Uiso   1.00
O1557  O     0.70340   0.18734   0.95777   0.00000  Uiso   1.00
O1558  O     0.71476   0.12969   0.50455   0.00000  Uiso   1.00
O1559  O     0.70973   0.20050   0.13010   0.00000  Uiso   1.00
O1560  O     0.54066   0.36864   0.25030   0.00000  Uiso   1.00
O1561  O     0.54524   0.36059   0.33415   0.00000  Uiso   1.00
O1562  O     0.54346   0.36265   0.49585   0.00000  Uiso   1.00
O1563  O     0.53439   0.28924   0.37369   0.00000  Uiso   1.00
O1564  O     0.53393   0.29306   0.45858   0.00000  Uiso   1.00
O1565  O     0.54056   0.30328   0.20721   0.00000  Uiso   1.00
O1566  O     0.53465   0.28720   0.12365   0.00000  Uiso   1.00
O1567  O     0.54691   0.35179   0.08417   0.00000  Uiso   1.00
O1568  O     0.53978   0.36563   0.99957   0.00000  Uiso   1.00
O1569  O     0.53989   0.37088   0.75139   0.00000  Uiso   1.00
O1570  O     0.54193   0.36168   0.83677   0.00000  Uiso   1.00
O1571  O     0.53750   0.29463   0.63003   0.00000  Uiso   1.00
O1572  O     0.53525   0.29351   0.87613   0.00000  Uiso   1.00
O1573  O     0.53394   0.29388   0.96361   0.00000  Uiso   1.00
O1574  O     0.54100   0.30381   0.71430   0.00000  Uiso   1.00
O1575  O     0.54329   0.36056   0.58436   0.00000  Uiso   1.00
O1576  O     0.71128   0.20108   0.87422   0.00000  Uiso   1.00
O1577  O     0.70992   0.46853   0.34534   0.00000  Uiso   1.00
O1578  O     0.71644   0.46213   0.25789   0.00000  Uiso   1.00
O1579  O     0.70792   0.52438   0.47100   0.00000  Uiso   1.00
O1580  O     0.70326   0.52612   0.22540   0.00000  Uiso   1.00
O1581  O     0.71472   0.46325   0.01342   0.00000  Uiso   1.00
O1582  O     0.70642   0.52561   0.13762   0.00000  Uiso   1.00
O1583  O     0.70712   0.52724   0.38392   0.00000  Uiso   1.00
O1584  O     0.71146   0.46451   0.09957   0.00000  Uiso   1.00
O1585  O     0.71291   0.46612   0.50769   0.00000  Uiso   1.00
O1586  O     0.71889   0.46563   0.59607   0.00000  Uiso   1.00
O1587  O     0.70897   0.53197   0.71846   0.00000  Uiso   1.00
O1588  O     0.70606   0.52771   0.63173   0.00000  Uiso   1.00
O1589  O     0.71388   0.47010   0.76043   0.00000  Uiso   1.00
O1590  O     0.71214   0.52999   0.88307   0.00000  Uiso   1.00
O1591  O     0.71363   0.46786   0.84752   0.00000  Uiso   1.00
O1592  O     0.70349   0.52373   0.96974   0.00000  Uiso   1.00
O1593  O     0.71147   0.79782   0.33753   0.00000  Uiso   1.00
O1594  O     0.54489   0.69824   0.25460   0.00000  Uiso   1.00
O1595  O     0.53757   0.62991   0.38131   0.00000  Uiso   1.00
O1596  O     0.53667   0.70618   0.00466   0.00000  Uiso   1.00
O1597  O     0.53683   0.63030   0.46847   0.00000  Uiso   1.00
O1598  O     0.53645   0.63058   0.12990   0.00000  Uiso   1.00
O1599  O     0.53138   0.62932   0.21612   0.00000  Uiso   1.00
O1600  O     0.54625   0.69839   0.08930   0.00000  Uiso   1.00
O1601  O     0.54030   0.70446   0.34218   0.00000  Uiso   1.00
O1602  O     0.71265   0.79474   0.08587   0.00000  Uiso   1.00
O1603  O     0.53487   0.70263   0.75452   0.00000  Uiso   1.00
O1604  O     0.53922   0.63152   0.96780   0.00000  Uiso   1.00
O1605  O     0.53975   0.70255   0.50819   0.00000  Uiso   1.00
O1606  O     0.53665   0.62541   0.63212   0.00000  Uiso   1.00
O1607  O     0.53773   0.63163   0.71906   0.00000  Uiso   1.00
O1608  O     0.53003   0.62393   0.88105   0.00000  Uiso   1.00
O1609  O     0.54157   0.69720   0.59429   0.00000  Uiso   1.00
O1610  O     0.54024   0.69547   0.84228   0.00000  Uiso   1.00
O1611  O     0.71481   0.79687   0.83950   0.00000  Uiso   1.00
O1612  O     0.70867   0.79997   0.75110   0.00000  Uiso   1.00
O1613  O     0.70537   0.85447   0.37872   0.00000  Uiso   1.00
O1614  O     0.54091   0.96396   0.47166   0.00000  Uiso   1.00
O1615  O     0.53178   0.95541   0.12678   0.00000  Uiso   1.00
O1616  O     0.70601   0.85611   0.13142   0.00000  Uiso   1.00
O1617  O     0.53682   0.96021   0.21337   0.00000  Uiso   1.00
O1618  O     0.70828   0.86346   0.21749   0.00000  Uiso   1.00
O1619  O     0.70849   0.86108   0.46543   0.00000  Uiso   1.00
O1620  O     0.53828   0.96061   0.38747   0.00000  Uiso   1.00
O1621  O     0.71139   0.80326   0.25001   0.00000  Uiso   1.00
O1622  O     0.71114   0.80210   0.00072   0.00000  Uiso   1.00
O1623  O     0.70862   0.80340   0.49928   0.00000  Uiso   1.00
O1624  O     0.53579   0.96184   0.96785   0.00000  Uiso   1.00
O1625  O     0.53827   0.95701   0.62703   0.00000  Uiso   1.00
O1626  O     0.70536   0.85225   0.62747   0.00000  Uiso   1.00
O1627  O     0.53379   0.95760   0.71267   0.00000  Uiso   1.00
O1628  O     0.70862   0.85672   0.71138   0.00000  Uiso   1.00
O1629  O     0.70889   0.86252   0.96942   0.00000  Uiso   1.00
O1630  O     0.53349   0.95902   0.88063   0.00000  Uiso   1.00
O1631  O     0.70568   0.85863   0.88301   0.00000  Uiso   1.00
O1632  O     0.71314   0.80073   0.58747   0.00000  Uiso   1.00
O1633  O     0.78908   0.13248   0.33394   0.00000  Uiso   1.00
O1634  O     0.96194   0.03250   0.33802   0.00000  Uiso   1.00
O1635  O     0.79227   0.13637   0.08570   0.00000  Uiso   1.00
O1636  O     0.79545   0.14015   0.24765   0.00000  Uiso   1.00
O1637  O     0.96414   0.03877   0.25111   0.00000  Uiso   1.00
O1638  O     0.96097   0.02925   0.08825   0.00000  Uiso   1.00
O1639  O     0.96118   0.03470   0.00117   0.00000  Uiso   1.00
O1640  O     0.78829   0.13206   0.00051   0.00000  Uiso   1.00
O1641  O     0.79966   0.14100   0.83783   0.00000  Uiso   1.00
O1642  O     0.96577   0.03413   0.83670   0.00000  Uiso   1.00
O1643  O     0.79667   0.13724   0.58959   0.00000  Uiso   1.00
O1644  O     0.79048   0.13096   0.75229   0.00000  Uiso   1.00
O1645  O     0.96232   0.02928   0.74968   0.00000  Uiso   1.00
O1646  O     0.96321   0.03209   0.59278   0.00000  Uiso   1.00
O1647  O     0.78675   0.12991   0.50360   0.00000  Uiso   1.00
O1648  O     0.96073   0.02805   0.50686   0.00000  Uiso   1.00
O1649  O     0.95803   0.30472   0.38268   0.00000  Uiso   1.00
O1650  O     0.96122   0.36455   0.24726   0.00000  Uiso   1.00
O1651  O     0.78303   0.20443   0.46404   0.00000  Uiso   1.00
O1652  O     0.95324   0.30962   0.21424   0.00000  Uiso   1.00
O1653  O     0.96316   0.36106   0.33441   0.00000  Uiso   1.00
O1654  O     0.77963   0.21060   0.20884   0.00000  Uiso   1.00
O1655  O     0.95394   0.31319   0.12598   0.00000  Uiso   1.00
O1656  O     0.96733   0.36934   0.09029   0.00000  Uiso   1.00
O1657  O     0.95590   0.31510   0.46692   0.00000  Uiso   1.00
O1658  O     0.96050   0.36634   0.00380   0.00000  Uiso   1.00
O1659  O     0.78629   0.20768   0.12375   0.00000  Uiso   1.00
O1660  O     0.78978   0.20527   0.37800   0.00000  Uiso   1.00
O1661  O     0.96686   0.37472   0.49917   0.00000  Uiso   1.00
O1662  O     0.79348   0.20214   0.71695   0.00000  Uiso   1.00
O1663  O     0.78832   0.20105   0.96388   0.00000  Uiso   1.00
O1664  O     0.95510   0.30797   0.70933   0.00000  Uiso   1.00
O1665  O     0.96532   0.36623   0.84087   0.00000  Uiso   1.00
O1666  O     0.96170   0.30052   0.62339   0.00000  Uiso   1.00
O1667  O     0.96165   0.36346   0.75455   0.00000  Uiso   1.00
O1668  O     0.96323   0.36460   0.58590   0.00000  Uiso   1.00
O1669  O     0.95684   0.30744   0.87621   0.00000  Uiso   1.00
O1670  O     0.95711   0.30442   0.96445   0.00000  Uiso   1.00
O1671  O     0.78591   0.20801   0.87772   0.00000  Uiso   1.00
O1672  O     0.78406   0.20786   0.63106   0.00000  Uiso   1.00
O1673  O     0.79126   0.46808   0.34298   0.00000  Uiso   1.00
O1674  O     0.78816   0.53430   0.38148   0.00000  Uiso   1.00
O1675  O     0.79438   0.47095   0.00292   0.00000  Uiso   1.00
O1676  O     0.78473   0.53901   0.22164   0.00000  Uiso   1.00
O1677  O     0.78823   0.53523   0.46802   0.00000  Uiso   1.00
O1678  O     0.79301   0.47008   0.25731   0.00000  Uiso   1.00
O1679  O     0.79283   0.46883   0.09009   0.00000  Uiso   1.00
O1680  O     0.78551   0.53685   0.13327   0.00000  Uiso   1.00
O1681  O     0.79689   0.46798   0.84578   0.00000  Uiso   1.00
O1682  O     0.78902   0.53979   0.88584   0.00000  Uiso   1.00
O1683  O     0.78263   0.54629   0.63758   0.00000  Uiso   1.00
O1684  O     0.79794   0.47647   0.59523   0.00000  Uiso   1.00
O1685  O     0.77987   0.54059   0.97343   0.00000  Uiso   1.00
O1686  O     0.79401   0.47105   0.75812   0.00000  Uiso   1.00
O1687  O     0.78747   0.54361   0.72167   0.00000  Uiso   1.00
O1688  O     0.78983   0.46815   0.50874   0.00000  Uiso   1.00
O1689  O     0.96364   0.70032   0.32899   0.00000  Uiso   1.00
O1690  O     0.96114   0.63696   0.45857   0.00000  Uiso   1.00
O1691  O     0.79069   0.79614   0.09171   0.00000  Uiso   1.00
O1692  O     0.96154   0.69848   0.08822   0.00000  Uiso   1.00
O1693  O     0.95696   0.64275   0.12620   0.00000  Uiso   1.00
O1694  O     0.96209   0.70039   0.24180   0.00000  Uiso   1.00
O1695  O     0.95614   0.64508   0.37513   0.00000  Uiso   1.00
O1696  O     0.95610   0.64432   0.21224   0.00000  Uiso   1.00
O1697  O     0.96610   0.70404   0.00257   0.00000  Uiso   1.00
O1698  O     0.78827   0.79353   0.34163   0.00000  Uiso   1.00
O1699  O     0.79433   0.79594   0.59143   0.00000  Uiso   1.00
O1700  O     0.96531   0.69841   0.58866   0.00000  Uiso   1.00
O1701  O     0.96577   0.69741   0.84092   0.00000  Uiso   1.00
O1702  O     0.95539   0.63997   0.88265   0.00000  Uiso   1.00
O1703  O     0.96167   0.69855   0.50283   0.00000  Uiso   1.00
O1704  O     0.95766   0.64213   0.62542   0.00000  Uiso   1.00
O1705  O     0.96142   0.69299   0.75302   0.00000  Uiso   1.00
O1706  O     0.95771   0.64472   0.96998   0.00000  Uiso   1.00
O1707  O     0.96136   0.63288   0.70980   0.00000  Uiso   1.00
O1708  O     0.79108   0.79400   0.50516   0.00000  Uiso   1.00
O1709  O     0.78462   0.79325   0.75518   0.00000  Uiso   1.00
O1710  O     0.95873   0.97371   0.37314   0.00000  Uiso   1.00
O1711  O     0.78538   0.86790   0.46543   0.00000  Uiso   1.00
O1712  O     0.78941   0.87215   0.21490   0.00000  Uiso   1.00
O1713  O     0.95786   0.97487   0.46053   0.00000  Uiso   1.00
O1714  O     0.95321   0.98227   0.20923   0.00000  Uiso   1.00
O1715  O     0.78869   0.86514   0.38128   0.00000  Uiso   1.00
O1716  O     0.78981   0.86542   0.12655   0.00000  Uiso   1.00
O1717  O     0.95699   0.97486   0.12430   0.00000  Uiso   1.00
O1718  O     0.79214   0.80003   0.25424   0.00000  Uiso   1.00
O1719  O     0.79277   0.80317   0.00679   0.00000  Uiso   1.00
O1720  O     0.95704   0.97400   0.95803   0.00000  Uiso   1.00
O1721  O     0.95830   0.97221   0.86924   0.00000  Uiso   1.00
O1722  O     0.78733   0.87093   0.96734   0.00000  Uiso   1.00
O1723  O     0.78780   0.86501   0.71776   0.00000  Uiso   1.00
O1724  O     0.95667   0.97271   0.70993   0.00000  Uiso   1.00
O1725  O     0.78616   0.86963   0.88100   0.00000  Uiso   1.00
O1726  O     0.78464   0.87232   0.63367   0.00000  Uiso   1.00
O1727  O     0.95536   0.97250   0.62413   0.00000  Uiso   1.00
O1728  O     0.79747   0.80393   0.83794   0.00000  Uiso   1.00
O1729  O     0.01185   0.02532   0.16687   0.00000  Uiso   1.00
O1730  O     0.01107   0.02126   0.41663   0.00000  Uiso   1.00
O1731  O     0.01824   0.01899   0.66915   0.00000  Uiso   1.00
O1732  O     0.01328   0.02365   0.91945   0.00000  Uiso   1.00
O1733  O     0.01358   0.35641   0.41514   0.00000  Uiso   1.00
O1734  O     0.00635   0.30436   0.29412   0.00000  Uiso   1.00
O1735  O     0.01486   0.35264   0.17101   0.00000  Uiso   1.00
O1736  O     0.00605   0.30734   0.04713   0.00000  Uiso   1.00
O1737  O     0.00974   0.35228   0.92005   0.00000  Uiso   1.00
O1738  O     0.00869   0.35632   0.66655   0.00000  Uiso   1.00
O1739  O     0.00579   0.30685   0.79252   0.00000  Uiso   1.00
O1740  O     0.00732   0.31122   0.53993   0.00000  Uiso   1.00
O1741  O     0.01149   0.64193   0.04287   0.00000  Uiso   1.00
O1742  O     0.01924   0.68740   0.16391   0.00000  Uiso   1.00
O1743  O     0.00504   0.69539   0.41640   0.00000  Uiso   1.00
O1744  O     0.01092   0.64482   0.29150   0.00000  Uiso   1.00
O1745  O     0.00761   0.64089   0.79886   0.00000  Uiso   1.00
O1746  O     0.01815   0.68524   0.92093   0.00000  Uiso   1.00
O1747  O     0.00469   0.64415   0.54614   0.00000  Uiso   1.00
O1748  O     0.01191   0.68958   0.67338   0.00000  Uiso   1.00
O1749  O     0.01069   0.97758   0.04130   0.00000  Uiso   1.00
O1750  O     0.00849   0.97430   0.28909   0.00000  Uiso   1.00
O1751  O     0.01392   0.97718   0.54196   0.00000  Uiso   1.00
O1752  O     0.01136   0.97501   0.79396   0.00000  Uiso   1.00
O1753  O     0.25314   0.19227   0.04570   0.00000  Uiso   1.00
O1754  O     0.25668   0.14015   0.17284   0.00000  Uiso   1.00
O1755  O     0.26366   0.14231   0.41963   0.00000  Uiso   1.00
O1756  O     0.25966   0.19153   0.29363   0.00000  Uiso   1.00
O1757  O     0.25698   0.19400   0.79713   0.00000  Uiso   1.00
O1758  O     0.26823   0.14718   0.67613   0.00000  Uiso   1.00
O1759  O     0.26143   0.14346   0.92066   0.00000  Uiso   1.00
O1760  O     0.25649   0.18992   0.54762   0.00000  Uiso   1.00
O1761  O     0.49791   0.30394   0.03749   0.00000  Uiso   1.00
O1762  O     0.25973   0.52614   0.29313   0.00000  Uiso   1.00
O1763  O     0.26342   0.47895   0.41930   0.00000  Uiso   1.00
O1764  O     0.26590   0.47762   0.17051   0.00000  Uiso   1.00
O1765  O     0.25307   0.52235   0.04059   0.00000  Uiso   1.00
O1766  O     0.26732   0.47403   0.91640   0.00000  Uiso   1.00
O1767  O     0.25852   0.52486   0.54360   0.00000  Uiso   1.00
O1768  O     0.25310   0.52300   0.79153   0.00000  Uiso   1.00
O1769  O     0.26484   0.47636   0.66829   0.00000  Uiso   1.00
O1770  O     0.25262   0.86038   0.04808   0.00000  Uiso   1.00
O1771  O     0.26552   0.81184   0.42341   0.00000  Uiso   1.00
O1772  O     0.26396   0.81118   0.17161   0.00000  Uiso   1.00
O1773  O     0.26404   0.85610   0.29828   0.00000  Uiso   1.00
O1774  O     0.25516   0.85794   0.79484   0.00000  Uiso   1.00
O1775  O     0.26337   0.81388   0.66832   0.00000  Uiso   1.00
O1776  O     0.26053   0.81068   0.92353   0.00000  Uiso   1.00
O1777  O     0.26452   0.86177   0.54563   0.00000  Uiso   1.00
O1778  O     0.51260   0.02415   0.42347   0.00000  Uiso   1.00
O1779  O     0.51388   0.02302   0.16998   0.00000  Uiso   1.00
O1780  O     0.51313   0.01956   0.66840   0.00000  Uiso   1.00
O1781  O     0.51233   0.02380   0.91968   0.00000  Uiso   1.00
O1782  O     0.51031   0.35367   0.16216   0.00000  Uiso   1.00
O1783  O     0.51162   0.35555   0.41375   0.00000  Uiso   1.00
O1784  O     0.50376   0.30709   0.28870   0.00000  Uiso   1.00
O1785  O     0.50656   0.30936   0.54131   0.00000  Uiso   1.00
O1786  O     0.51087   0.35255   0.91537   0.00000  Uiso   1.00
O1787  O     0.50965   0.35860   0.66744   0.00000  Uiso   1.00
O1788  O     0.50700   0.30894   0.78728   0.00000  Uiso   1.00
O1789  O     0.51463   0.68936   0.42499   0.00000  Uiso   1.00
O1790  O     0.51365   0.68970   0.17076   0.00000  Uiso   1.00
O1791  O     0.50878   0.64542   0.04716   0.00000  Uiso   1.00
O1792  O     0.50822   0.64532   0.29848   0.00000  Uiso   1.00
O1793  O     0.50316   0.64052   0.79518   0.00000  Uiso   1.00
O1794  O     0.51152   0.68622   0.92097   0.00000  Uiso   1.00
O1795  O     0.50747   0.64154   0.54897   0.00000  Uiso   1.00
O1796  O     0.50835   0.68921   0.66939   0.00000  Uiso   1.00
O1797  O     0.50729   0.97588   0.04449   0.00000  Uiso   1.00
O1798  O     0.51401   0.97631   0.29570   0.00000  Uiso   1.00
O1799  O     0.50176   0.97308   0.79236   0.00000  Uiso   1.00
O1800  O     0.50948   0.97399   0.54439   0.00000  Uiso   1.00
O1801  O     0.76378   0.14408   0.41896   0.00000  Uiso   1.00
O1802  O     0.76175   0.14559   0.16720   0.00000  Uiso   1.00
O1803  O     0.75442   0.19228   0.04285   0.00000  Uiso   1.00
O1804  O     0.76232   0.19247   0.29294   0.00000  Uiso   1.00
O1805  O     0.76173   0.14437   0.67167   0.00000  Uiso   1.00
O1806  O     0.75821   0.19006   0.54349   0.00000  Uiso   1.00
O1807  O     0.76310   0.14366   0.91695   0.00000  Uiso   1.00
O1808  O     0.76475   0.19194   0.79399   0.00000  Uiso   1.00
O1809  O     0.75854   0.52290   0.30068   0.00000  Uiso   1.00
O1810  O     0.76109   0.47614   0.42582   0.00000  Uiso   1.00
O1811  O     0.75591   0.52372   0.05436   0.00000  Uiso   1.00
O1812  O     0.76412   0.48028   0.17647   0.00000  Uiso   1.00
O1813  O     0.76236   0.47719   0.92878   0.00000  Uiso   1.00
O1814  O     0.76603   0.48163   0.67655   0.00000  Uiso   1.00
O1815  O     0.75710   0.52591   0.54773   0.00000  Uiso   1.00
O1816  O     0.76372   0.52409   0.80372   0.00000  Uiso   1.00
O1817  O     0.76059   0.85577   0.30097   0.00000  Uiso   1.00
O1818  O     0.75691   0.85471   0.04852   0.00000  Uiso   1.00
O1819  O     0.76146   0.80956   0.17551   0.00000  Uiso   1.00
O1820  O     0.76332   0.80772   0.42258   0.00000  Uiso   1.00
O1821  O     0.75614   0.85585   0.79908   0.00000  Uiso   1.00
O1822  O     0.76201   0.80831   0.92565   0.00000  Uiso   1.00
O1823  O     0.76545   0.85322   0.54678   0.00000  Uiso   1.00
O1824  O     0.76489   0.80717   0.67186   0.00000  Uiso   1.00
