data_final_Br-Co-SABVOH01
_audit_creation_date              2022-12-15
_audit_creation_method            'Materials Studio'
_symmetry_space_group_name_H-M    'P1'
_symmetry_Int_Tables_number       1
_symmetry_cell_setting            triclinic
loop_
_symmetry_equiv_pos_as_xyz
  x,y,z
_cell_length_a                    31.8440
_cell_length_b                    34.4149
_cell_length_c                    24.6399
_cell_angle_alpha                 90.0000
_cell_angle_beta                  90.0000
_cell_angle_gamma                 90.0000
loop_
_atom_site_label
_atom_site_type_symbol
_atom_site_fract_x
_atom_site_fract_y
_atom_site_fract_z
_atom_site_U_iso_or_equiv
_atom_site_adp_type
_atom_site_occupancy
Co1    Co    0.00068   0.00152   0.38342   0.00000  Uiso   1.00
Co2    Co    0.24931   0.16541   0.13277   0.00000  Uiso   1.00
Co3    Co    0.00087   0.00042   0.00969   0.00000  Uiso   1.00
Co4    Co    0.00175   0.00141   0.63468   0.00000  Uiso   1.00
Co5    Co    0.00178   0.00013   0.75891   0.00000  Uiso   1.00
Co6    Co    0.00131   0.00335   0.50895   0.00000  Uiso   1.00
Co7    Co    0.00176   0.33162   0.38239   0.00000  Uiso   1.00
Co8    Co    0.00028   0.33256   0.25750   0.00000  Uiso   1.00
Co9    Co    0.00046   0.33059   0.63111   0.00000  Uiso   1.00
Co10   Co    0.00230   0.33017   0.50625   0.00000  Uiso   1.00
Co11   Co    0.24729   0.50337   0.12984   0.00000  Uiso   1.00
Co12   Co    0.24693   0.50105   0.00415   0.00000  Uiso   1.00
Co13   Co    0.24802   0.50020   0.38109   0.00000  Uiso   1.00
Co14   Co    0.24658   0.49992   0.88040   0.00000  Uiso   1.00
Co15   Co    0.24769   0.49745   0.50483   0.00000  Uiso   1.00
Co16   Co    0.24738   0.49765   0.75633   0.00000  Uiso   1.00
Co17   Co    0.24678   0.49839   0.63022   0.00000  Uiso   1.00
Co18   Co    0.00018   0.66761   0.01092   0.00000  Uiso   1.00
Co19   Co    0.00100   0.66580   0.63391   0.00000  Uiso   1.00
Co20   Co    0.00005   0.99889   0.25860   0.00000  Uiso   1.00
Co21   Co    0.25277   0.16509   0.38246   0.00000  Uiso   1.00
Co22   Co    0.25185   0.16721   0.25761   0.00000  Uiso   1.00
Co23   Co    0.49953   0.00119   0.00473   0.00000  Uiso   1.00
Co24   Co    0.25042   0.16557   0.00848   0.00000  Uiso   1.00
Co25   Co    0.49784   0.00108   0.38075   0.00000  Uiso   1.00
Co26   Co    0.25265   0.16457   0.50697   0.00000  Uiso   1.00
Co27   Co    0.25078   0.16637   0.63065   0.00000  Uiso   1.00
Co28   Co    0.25080   0.16765   0.75604   0.00000  Uiso   1.00
Co29   Co    0.25001   0.16588   0.88146   0.00000  Uiso   1.00
Co30   Co    0.49932   0.33342   0.00613   0.00000  Uiso   1.00
Co31   Co    0.49941   0.33373   0.13188   0.00000  Uiso   1.00
Co32   Co    0.49980   0.33553   0.88337   0.00000  Uiso   1.00
Co33   Co    0.49902   0.33611   0.63221   0.00000  Uiso   1.00
Co34   Co    0.49921   0.33332   0.50908   0.00000  Uiso   1.00
Co35   Co    0.25031   0.50416   0.25537   0.00000  Uiso   1.00
Co36   Co    0.49933   0.66838   0.13524   0.00000  Uiso   1.00
Co37   Co    0.49969   0.66641   0.25924   0.00000  Uiso   1.00
Co38   Co    0.49918   0.66670   0.00917   0.00000  Uiso   1.00
Co39   Co    0.49764   0.66670   0.75958   0.00000  Uiso   1.00
Co40   Co    0.49930   0.66753   0.51011   0.00000  Uiso   1.00
Co41   Co    0.49806   0.66620   0.63462   0.00000  Uiso   1.00
Co42   Co    0.25049   0.82991   0.00608   0.00000  Uiso   1.00
Co43   Co    0.25150   0.83135   0.38095   0.00000  Uiso   1.00
Co44   Co    0.25178   0.82962   0.13136   0.00000  Uiso   1.00
Co45   Co    0.25167   0.83084   0.25696   0.00000  Uiso   1.00
Co46   Co    0.49805   0.99925   0.25471   0.00000  Uiso   1.00
Co47   Co    0.49927   0.99917   0.12969   0.00000  Uiso   1.00
Co48   Co    0.25094   0.83289   0.50657   0.00000  Uiso   1.00
Co49   Co    0.49802   0.99905   0.50481   0.00000  Uiso   1.00
Co50   Co    0.25305   0.83260   0.63146   0.00000  Uiso   1.00
Co51   Co    0.25004   0.82955   0.88160   0.00000  Uiso   1.00
Co52   Co    0.25154   0.83174   0.75603   0.00000  Uiso   1.00
Co53   Co    0.49957   0.99995   0.63059   0.00000  Uiso   1.00
Co54   Co    0.74713   0.16626   0.00877   0.00000  Uiso   1.00
Co55   Co    0.74559   0.16882   0.38348   0.00000  Uiso   1.00
Co56   Co    0.74833   0.16728   0.26000   0.00000  Uiso   1.00
Co57   Co    0.74858   0.16592   0.13383   0.00000  Uiso   1.00
Co58   Co    0.50053   0.00097   0.87974   0.00000  Uiso   1.00
Co59   Co    0.74836   0.16557   0.88410   0.00000  Uiso   1.00
Co60   Co    0.74908   0.16687   0.75889   0.00000  Uiso   1.00
Co61   Co    0.74789   0.16839   0.50879   0.00000  Uiso   1.00
Co62   Co    0.50051   0.00158   0.75551   0.00000  Uiso   1.00
Co63   Co    0.50066   0.33183   0.25751   0.00000  Uiso   1.00
Co64   Co    0.50008   0.33248   0.38260   0.00000  Uiso   1.00
Co65   Co    0.50083   0.33595   0.75788   0.00000  Uiso   1.00
Co66   Co    0.74991   0.50014   0.00992   0.00000  Uiso   1.00
Co67   Co    0.74928   0.50094   0.25865   0.00000  Uiso   1.00
Co68   Co    0.74850   0.50175   0.38272   0.00000  Uiso   1.00
Co69   Co    0.74907   0.50212   0.75962   0.00000  Uiso   1.00
Co70   Co    0.74997   0.50151   0.88490   0.00000  Uiso   1.00
Co71   Co    0.50001   0.66853   0.38425   0.00000  Uiso   1.00
Co72   Co    0.50006   0.66573   0.88387   0.00000  Uiso   1.00
Co73   Co    0.74892   0.83356   0.13347   0.00000  Uiso   1.00
Co74   Co    0.74958   0.83447   0.00945   0.00000  Uiso   1.00
Co75   Co    0.75025   0.16695   0.63436   0.00000  Uiso   1.00
Co76   Co    0.99989   0.00114   0.88305   0.00000  Uiso   1.00
Co77   Co    0.99849   0.33350   0.00747   0.00000  Uiso   1.00
Co78   Co    0.99883   0.33255   0.13129   0.00000  Uiso   1.00
Co79   Co    0.99967   0.33115   0.75613   0.00000  Uiso   1.00
Co80   Co    0.99872   0.33272   0.88277   0.00000  Uiso   1.00
Co81   Co    0.75191   0.49771   0.13383   0.00000  Uiso   1.00
Co82   Co    0.75007   0.50094   0.63401   0.00000  Uiso   1.00
Co83   Co    0.75050   0.50102   0.50702   0.00000  Uiso   1.00
Co84   Co    0.99989   0.66758   0.38516   0.00000  Uiso   1.00
Co85   Co    0.99897   0.66989   0.13547   0.00000  Uiso   1.00
Co86   Co    0.99841   0.66728   0.26137   0.00000  Uiso   1.00
Co87   Co    0.99997   0.66663   0.75825   0.00000  Uiso   1.00
Co88   Co    0.99907   0.66685   0.88477   0.00000  Uiso   1.00
Co89   Co    0.99950   0.66614   0.51018   0.00000  Uiso   1.00
Co90   Co    0.75200   0.83474   0.38299   0.00000  Uiso   1.00
Co91   Co    0.75063   0.83429   0.25846   0.00000  Uiso   1.00
Co92   Co    0.99998   0.99914   0.13403   0.00000  Uiso   1.00
Co93   Co    0.75153   0.83605   0.50885   0.00000  Uiso   1.00
Co94   Co    0.75277   0.83612   0.75812   0.00000  Uiso   1.00
Co95   Co    0.75151   0.83581   0.63311   0.00000  Uiso   1.00
Co96   Co    0.75132   0.83586   0.88206   0.00000  Uiso   1.00
Br97   Br    0.10571   0.14352   0.10532   0.00000  Uiso   1.00
Br98   Br    0.22919   0.02881   0.40474   0.00000  Uiso   1.00
Br99   Br    0.23158   0.02650   0.15925   0.00000  Uiso   1.00
Br100  Br    0.12224   0.14800   0.34933   0.00000  Uiso   1.00
Br101  Br    0.02023   0.19021   0.28157   0.00000  Uiso   1.00
Br102  Br    0.02203   0.19269   0.03534   0.00000  Uiso   1.00
Br103  Br    0.10903   0.14028   0.60245   0.00000  Uiso   1.00
Br104  Br    0.23185   0.02977   0.66378   0.00000  Uiso   1.00
Br105  Br    0.22862   0.02505   0.90553   0.00000  Uiso   1.00
Br106  Br    0.10760   0.14803   0.86178   0.00000  Uiso   1.00
Br107  Br    0.02014   0.19341   0.53619   0.00000  Uiso   1.00
Br108  Br    0.02044   0.19067   0.78931   0.00000  Uiso   1.00
Br109  Br    0.15098   0.31260   0.22293   0.00000  Uiso   1.00
Br110  Br    0.23114   0.36706   0.16161   0.00000  Uiso   1.00
Br111  Br    0.14300   0.30636   0.48086   0.00000  Uiso   1.00
Br112  Br    0.23237   0.36902   0.41013   0.00000  Uiso   1.00
Br113  Br    0.14238   0.30810   0.73787   0.00000  Uiso   1.00
Br114  Br    0.22727   0.35379   0.90227   0.00000  Uiso   1.00
Br115  Br    0.22999   0.36353   0.66481   0.00000  Uiso   1.00
Br116  Br    0.14159   0.31047   0.98873   0.00000  Uiso   1.00
Br117  Br    0.10583   0.48746   0.10302   0.00000  Uiso   1.00
Br118  Br    0.10747   0.47393   0.35329   0.00000  Uiso   1.00
Br119  Br    0.02223   0.53930   0.04706   0.00000  Uiso   1.00
Br120  Br    0.01627   0.53022   0.27576   0.00000  Uiso   1.00
Br121  Br    0.10432   0.47749   0.60680   0.00000  Uiso   1.00
Br122  Br    0.10197   0.47949   0.86367   0.00000  Uiso   1.00
Br123  Br    0.02113   0.52039   0.52752   0.00000  Uiso   1.00
Br124  Br    0.02223   0.52165   0.78041   0.00000  Uiso   1.00
Br125  Br    0.22785   0.70064   0.16913   0.00000  Uiso   1.00
Br126  Br    0.14404   0.64818   0.23661   0.00000  Uiso   1.00
Br127  Br    0.23182   0.69525   0.40539   0.00000  Uiso   1.00
Br128  Br    0.14420   0.64298   0.48463   0.00000  Uiso   1.00
Br129  Br    0.22472   0.68041   0.65492   0.00000  Uiso   1.00
Br130  Br    0.13584   0.64824   0.71955   0.00000  Uiso   1.00
Br131  Br    0.22918   0.68992   0.90436   0.00000  Uiso   1.00
Br132  Br    0.14297   0.63899   0.99238   0.00000  Uiso   1.00
Br133  Br    0.14710   0.98168   0.23421   0.00000  Uiso   1.00
Br134  Br    0.02591   0.85491   0.04054   0.00000  Uiso   1.00
Br135  Br    0.13759   0.98464   0.47853   0.00000  Uiso   1.00
Br136  Br    0.02874   0.84816   0.27952   0.00000  Uiso   1.00
Br137  Br    0.10720   0.81338   0.11858   0.00000  Uiso   1.00
Br138  Br    0.10736   0.80970   0.36324   0.00000  Uiso   1.00
Br139  Br    0.10708   0.81552   0.60557   0.00000  Uiso   1.00
Br140  Br    0.02256   0.86399   0.53876   0.00000  Uiso   1.00
Br141  Br    0.02172   0.86453   0.78871   0.00000  Uiso   1.00
Br142  Br    0.14696   0.97884   0.73407   0.00000  Uiso   1.00
Br143  Br    0.09428   0.80729   0.87299   0.00000  Uiso   1.00
Br144  Br    0.13798   0.97773   0.97786   0.00000  Uiso   1.00
Br145  Br    0.38984   0.18425   0.23090   0.00000  Uiso   1.00
Br146  Br    0.48052   0.13156   0.16170   0.00000  Uiso   1.00
Br147  Br    0.35699   0.01911   0.10377   0.00000  Uiso   1.00
Br148  Br    0.48217   0.13580   0.40687   0.00000  Uiso   1.00
Br149  Br    0.35212   0.02391   0.35576   0.00000  Uiso   1.00
Br150  Br    0.39382   0.18953   0.48180   0.00000  Uiso   1.00
Br151  Br    0.35447   0.01998   0.60402   0.00000  Uiso   1.00
Br152  Br    0.47855   0.13752   0.66292   0.00000  Uiso   1.00
Br153  Br    0.35708   0.02051   0.85723   0.00000  Uiso   1.00
Br154  Br    0.48142   0.14127   0.90966   0.00000  Uiso   1.00
Br155  Br    0.39610   0.18562   0.72618   0.00000  Uiso   1.00
Br156  Br    0.39614   0.18632   0.97625   0.00000  Uiso   1.00
Br157  Br    0.27309   0.30437   0.03293   0.00000  Uiso   1.00
Br158  Br    0.35852   0.35437   0.10302   0.00000  Uiso   1.00
Br159  Br    0.27313   0.31235   0.28332   0.00000  Uiso   1.00
Br160  Br    0.36267   0.35046   0.35814   0.00000  Uiso   1.00
Br161  Br    0.27293   0.30420   0.53601   0.00000  Uiso   1.00
Br162  Br    0.35560   0.35248   0.60903   0.00000  Uiso   1.00
Br163  Br    0.27173   0.30352   0.78156   0.00000  Uiso   1.00
Br164  Br    0.35915   0.35375   0.85575   0.00000  Uiso   1.00
Br165  Br    0.47167   0.47206   0.41916   0.00000  Uiso   1.00
Br166  Br    0.47374   0.47157   0.16098   0.00000  Uiso   1.00
Br167  Br    0.38979   0.51570   0.23217   0.00000  Uiso   1.00
Br168  Br    0.39506   0.52015   0.48947   0.00000  Uiso   1.00
Br169  Br    0.47613   0.47278   0.91384   0.00000  Uiso   1.00
Br170  Br    0.46562   0.48313   0.65172   0.00000  Uiso   1.00
Br171  Br    0.38061   0.51290   0.71847   0.00000  Uiso   1.00
Br172  Br    0.39592   0.52485   0.98556   0.00000  Uiso   1.00
Br173  Br    0.36320   0.69031   0.11274   0.00000  Uiso   1.00
Br174  Br    0.36324   0.68159   0.34836   0.00000  Uiso   1.00
Br175  Br    0.27243   0.64418   0.02789   0.00000  Uiso   1.00
Br176  Br    0.27122   0.63467   0.29080   0.00000  Uiso   1.00
Br177  Br    0.35328   0.68615   0.60930   0.00000  Uiso   1.00
Br178  Br    0.35992   0.68105   0.85034   0.00000  Uiso   1.00
Br179  Br    0.27015   0.62930   0.78635   0.00000  Uiso   1.00
Br180  Br    0.28166   0.65122   0.52216   0.00000  Uiso   1.00
Br181  Br    0.39404   0.85063   0.22736   0.00000  Uiso   1.00
Br182  Br    0.27062   0.96920   0.03561   0.00000  Uiso   1.00
Br183  Br    0.26857   0.97462   0.27776   0.00000  Uiso   1.00
Br184  Br    0.40202   0.85650   0.48795   0.00000  Uiso   1.00
Br185  Br    0.48265   0.81163   0.15224   0.00000  Uiso   1.00
Br186  Br    0.47412   0.80374   0.41651   0.00000  Uiso   1.00
Br187  Br    0.38508   0.85737   0.74128   0.00000  Uiso   1.00
Br188  Br    0.27125   0.97128   0.53299   0.00000  Uiso   1.00
Br189  Br    0.27427   0.97341   0.78620   0.00000  Uiso   1.00
Br190  Br    0.38736   0.85615   0.97928   0.00000  Uiso   1.00
Br191  Br    0.48246   0.80601   0.66175   0.00000  Uiso   1.00
Br192  Br    0.47255   0.81440   0.90051   0.00000  Uiso   1.00
Br193  Br    0.60298   0.15174   0.10666   0.00000  Uiso   1.00
Br194  Br    0.72328   0.01029   0.15216   0.00000  Uiso   1.00
Br195  Br    0.72229   0.02744   0.40987   0.00000  Uiso   1.00
Br196  Br    0.61022   0.14554   0.35800   0.00000  Uiso   1.00
Br197  Br    0.52039   0.19421   0.28838   0.00000  Uiso   1.00
Br198  Br    0.52031   0.19894   0.03647   0.00000  Uiso   1.00
Br199  Br    0.61497   0.15111   0.59966   0.00000  Uiso   1.00
Br200  Br    0.72615   0.02894   0.66401   0.00000  Uiso   1.00
Br201  Br    0.73072   0.01957   0.90769   0.00000  Uiso   1.00
Br202  Br    0.60027   0.15005   0.85617   0.00000  Uiso   1.00
Br203  Br    0.51781   0.19540   0.53996   0.00000  Uiso   1.00
Br204  Br    0.51963   0.19783   0.77793   0.00000  Uiso   1.00
Br205  Br    0.72548   0.35727   0.40804   0.00000  Uiso   1.00
Br206  Br    0.64418   0.31261   0.23820   0.00000  Uiso   1.00
Br207  Br    0.72736   0.36006   0.16305   0.00000  Uiso   1.00
Br208  Br    0.64180   0.30918   0.48383   0.00000  Uiso   1.00
Br209  Br    0.64030   0.31261   0.73230   0.00000  Uiso   1.00
Br210  Br    0.73379   0.35975   0.90709   0.00000  Uiso   1.00
Br211  Br    0.72185   0.36044   0.65986   0.00000  Uiso   1.00
Br212  Br    0.64718   0.31078   0.98201   0.00000  Uiso   1.00
Br213  Br    0.59816   0.48182   0.11258   0.00000  Uiso   1.00
Br214  Br    0.59821   0.48108   0.36684   0.00000  Uiso   1.00
Br215  Br    0.52118   0.52810   0.04376   0.00000  Uiso   1.00
Br216  Br    0.52271   0.53776   0.28673   0.00000  Uiso   1.00
Br217  Br    0.60646   0.48365   0.61683   0.00000  Uiso   1.00
Br218  Br    0.60533   0.48048   0.85613   0.00000  Uiso   1.00
Br219  Br    0.52021   0.52078   0.53332   0.00000  Uiso   1.00
Br220  Br    0.52386   0.52442   0.78371   0.00000  Uiso   1.00
Br221  Br    0.72643   0.69645   0.16625   0.00000  Uiso   1.00
Br222  Br    0.63353   0.65163   0.22581   0.00000  Uiso   1.00
Br223  Br    0.72618   0.69305   0.40431   0.00000  Uiso   1.00
Br224  Br    0.63890   0.64986   0.48224   0.00000  Uiso   1.00
Br225  Br    0.72373   0.70522   0.66322   0.00000  Uiso   1.00
Br226  Br    0.64565   0.65223   0.72923   0.00000  Uiso   1.00
Br227  Br    0.73121   0.69367   0.89992   0.00000  Uiso   1.00
Br228  Br    0.65028   0.64414   0.98881   0.00000  Uiso   1.00
Br229  Br    0.63939   0.97820   0.22724   0.00000  Uiso   1.00
Br230  Br    0.52287   0.87670   0.04026   0.00000  Uiso   1.00
Br231  Br    0.51931   0.86567   0.28956   0.00000  Uiso   1.00
Br232  Br    0.60054   0.81195   0.36928   0.00000  Uiso   1.00
Br233  Br    0.60577   0.81915   0.10661   0.00000  Uiso   1.00
Br234  Br    0.65427   0.98089   0.48798   0.00000  Uiso   1.00
Br235  Br    0.61033   0.81724   0.61084   0.00000  Uiso   1.00
Br236  Br    0.52613   0.86235   0.53582   0.00000  Uiso   1.00
Br237  Br    0.64217   0.97488   0.98044   0.00000  Uiso   1.00
Br238  Br    0.52876   0.85489   0.77803   0.00000  Uiso   1.00
Br239  Br    0.61170   0.81733   0.85152   0.00000  Uiso   1.00
Br240  Br    0.64422   0.97973   0.73474   0.00000  Uiso   1.00
Br241  Br    0.88511   0.18382   0.23535   0.00000  Uiso   1.00
Br242  Br    0.97685   0.14106   0.16324   0.00000  Uiso   1.00
Br243  Br    0.86193   0.02232   0.10708   0.00000  Uiso   1.00
Br244  Br    0.97237   0.14492   0.40497   0.00000  Uiso   1.00
Br245  Br    0.89156   0.18549   0.48271   0.00000  Uiso   1.00
Br246  Br    0.86015   0.02046   0.34988   0.00000  Uiso   1.00
Br247  Br    0.88797   0.17977   0.73409   0.00000  Uiso   1.00
Br248  Br    0.97445   0.13502   0.66544   0.00000  Uiso   1.00
Br249  Br    0.86268   0.01758   0.85177   0.00000  Uiso   1.00
Br250  Br    0.97594   0.13555   0.91936   0.00000  Uiso   1.00
Br251  Br    0.86621   0.02440   0.60306   0.00000  Uiso   1.00
Br252  Br    0.90588   0.19010   0.99405   0.00000  Uiso   1.00
Br253  Br    0.76615   0.30177   0.03626   0.00000  Uiso   1.00
Br254  Br    0.84811   0.35023   0.11372   0.00000  Uiso   1.00
Br255  Br    0.77900   0.31183   0.28261   0.00000  Uiso   1.00
Br256  Br    0.85680   0.35268   0.35184   0.00000  Uiso   1.00
Br257  Br    0.77449   0.30838   0.53810   0.00000  Uiso   1.00
Br258  Br    0.85670   0.35199   0.60656   0.00000  Uiso   1.00
Br259  Br    0.77185   0.30576   0.78290   0.00000  Uiso   1.00
Br260  Br    0.85134   0.35721   0.85988   0.00000  Uiso   1.00
Br261  Br    0.97162   0.46783   0.41350   0.00000  Uiso   1.00
Br262  Br    0.97978   0.46705   0.16104   0.00000  Uiso   1.00
Br263  Br    0.89055   0.51857   0.48382   0.00000  Uiso   1.00
Br264  Br    0.89771   0.51810   0.23102   0.00000  Uiso   1.00
Br265  Br    0.97965   0.46907   0.91397   0.00000  Uiso   1.00
Br266  Br    0.97872   0.45995   0.66527   0.00000  Uiso   1.00
Br267  Br    0.89556   0.52121   0.73260   0.00000  Uiso   1.00
Br268  Br    0.90060   0.52231   0.98726   0.00000  Uiso   1.00
Br269  Br    0.86020   0.68786   0.11100   0.00000  Uiso   1.00
Br270  Br    0.86785   0.67896   0.35531   0.00000  Uiso   1.00
Br271  Br    0.77490   0.62952   0.29436   0.00000  Uiso   1.00
Br272  Br    0.77590   0.65698   0.02771   0.00000  Uiso   1.00
Br273  Br    0.85579   0.68584   0.60608   0.00000  Uiso   1.00
Br274  Br    0.85749   0.69468   0.86726   0.00000  Uiso   1.00
Br275  Br    0.76756   0.64240   0.78213   0.00000  Uiso   1.00
Br276  Br    0.77440   0.63697   0.53887   0.00000  Uiso   1.00
Br277  Br    0.98063   0.79573   0.91900   0.00000  Uiso   1.00
Br278  Br    0.89958   0.85527   0.23340   0.00000  Uiso   1.00
Br279  Br    0.77463   0.98121   0.03127   0.00000  Uiso   1.00
Br280  Br    0.77650   0.97661   0.28814   0.00000  Uiso   1.00
Br281  Br    0.90108   0.85474   0.49743   0.00000  Uiso   1.00
Br282  Br    0.97840   0.80927   0.16521   0.00000  Uiso   1.00
Br283  Br    0.97725   0.81007   0.40748   0.00000  Uiso   1.00
Br284  Br    0.89285   0.85327   0.73987   0.00000  Uiso   1.00
Br285  Br    0.77172   0.97745   0.53353   0.00000  Uiso   1.00
Br286  Br    0.78108   0.97165   0.78685   0.00000  Uiso   1.00
Br287  Br    0.89884   0.85335   0.98464   0.00000  Uiso   1.00
Br288  Br    0.97871   0.80549   0.65949   0.00000  Uiso   1.00
H289   H     0.12807   0.03102   0.15424   0.00000  Uiso   1.00
H290   H     0.02736   0.03844   0.19574   0.00000  Uiso   1.00
H291   H     0.18321   0.07024   0.23308   0.00000  Uiso   1.00
H292   H     0.12630   0.04669   0.40623   0.00000  Uiso   1.00
H293   H     0.02550   0.04107   0.44851   0.00000  Uiso   1.00
H294   H     0.11984   0.19533   0.03293   0.00000  Uiso   1.00
H295   H     0.18799   0.05947   0.47956   0.00000  Uiso   1.00
H296   H     0.12521   0.03220   0.66079   0.00000  Uiso   1.00
H297   H     0.02615   0.04332   0.69903   0.00000  Uiso   1.00
H298   H     0.18200   0.06469   0.73127   0.00000  Uiso   1.00
H299   H     0.12459   0.03405   0.90898   0.00000  Uiso   1.00
H300   H     0.02210   0.04458   0.94813   0.00000  Uiso   1.00
H301   H     0.18236   0.06492   0.98166   0.00000  Uiso   1.00
H302   H     0.12195   0.18839   0.77919   0.00000  Uiso   1.00
H303   H     0.12412   0.19474   0.53277   0.00000  Uiso   1.00
H304   H     0.22622   0.20692   0.32003   0.00000  Uiso   1.00
H305   H     0.06070   0.22692   0.11081   0.00000  Uiso   1.00
H306   H     0.12740   0.36925   0.16254   0.00000  Uiso   1.00
H307   H     0.02193   0.37321   0.19380   0.00000  Uiso   1.00
H308   H     0.06687   0.22972   0.35501   0.00000  Uiso   1.00
H309   H     0.13083   0.35740   0.40206   0.00000  Uiso   1.00
H310   H     0.03361   0.36913   0.44332   0.00000  Uiso   1.00
H311   H     0.22067   0.20409   0.07430   0.00000  Uiso   1.00
H312   H     0.17684   0.39288   0.47775   0.00000  Uiso   1.00
H313   H     0.12645   0.20613   0.28282   0.00000  Uiso   1.00
H314   H     0.06875   0.22864   0.60674   0.00000  Uiso   1.00
H315   H     0.13336   0.35656   0.65891   0.00000  Uiso   1.00
H316   H     0.02342   0.37392   0.69089   0.00000  Uiso   1.00
H317   H     0.06373   0.23305   0.85729   0.00000  Uiso   1.00
H318   H     0.22618   0.20860   0.82257   0.00000  Uiso   1.00
H319   H     0.02449   0.37402   0.94447   0.00000  Uiso   1.00
H320   H     0.12612   0.36059   0.90495   0.00000  Uiso   1.00
H321   H     0.22602   0.20583   0.56650   0.00000  Uiso   1.00
H322   H     0.18843   0.39485   0.98003   0.00000  Uiso   1.00
H323   H     0.05798   0.55669   0.35462   0.00000  Uiso   1.00
H324   H     0.12326   0.53859   0.03041   0.00000  Uiso   1.00
H325   H     0.22828   0.54399   0.06624   0.00000  Uiso   1.00
H326   H     0.11951   0.53537   0.28183   0.00000  Uiso   1.00
H327   H     0.22868   0.54664   0.32237   0.00000  Uiso   1.00
H328   H     0.07771   0.58116   0.11054   0.00000  Uiso   1.00
H329   H     0.18616   0.40324   0.23107   0.00000  Uiso   1.00
H330   H     0.05549   0.56609   0.85940   0.00000  Uiso   1.00
H331   H     0.12420   0.52607   0.52969   0.00000  Uiso   1.00
H332   H     0.22325   0.53882   0.56575   0.00000  Uiso   1.00
H333   H     0.12542   0.53439   0.78196   0.00000  Uiso   1.00
H334   H     0.21732   0.53874   0.81803   0.00000  Uiso   1.00
H335   H     0.06255   0.56292   0.60879   0.00000  Uiso   1.00
H336   H     0.18030   0.40105   0.72918   0.00000  Uiso   1.00
H337   H     0.18431   0.73012   0.48097   0.00000  Uiso   1.00
H338   H     0.13094   0.69963   0.16403   0.00000  Uiso   1.00
H339   H     0.02191   0.71110   0.19811   0.00000  Uiso   1.00
H340   H     0.17538   0.73537   0.23069   0.00000  Uiso   1.00
H341   H     0.12981   0.69380   0.40749   0.00000  Uiso   1.00
H342   H     0.02604   0.70611   0.44811   0.00000  Uiso   1.00
H343   H     0.19418   0.72090   0.98662   0.00000  Uiso   1.00
H344   H     0.12819   0.71140   0.65901   0.00000  Uiso   1.00
H345   H     0.02532   0.70616   0.69761   0.00000  Uiso   1.00
H346   H     0.18294   0.73038   0.73031   0.00000  Uiso   1.00
H347   H     0.13570   0.68351   0.90799   0.00000  Uiso   1.00
H348   H     0.02113   0.70824   0.94987   0.00000  Uiso   1.00
H349   H     0.06899   0.90063   0.10944   0.00000  Uiso   1.00
H350   H     0.12492   0.86388   0.03399   0.00000  Uiso   1.00
H351   H     0.23317   0.87363   0.06875   0.00000  Uiso   1.00
H352   H     0.05830   0.89241   0.35804   0.00000  Uiso   1.00
H353   H     0.12842   0.86557   0.28537   0.00000  Uiso   1.00
H354   H     0.22391   0.87197   0.31778   0.00000  Uiso   1.00
H355   H     0.06742   0.90295   0.60546   0.00000  Uiso   1.00
H356   H     0.12446   0.86023   0.52910   0.00000  Uiso   1.00
H357   H     0.22560   0.87384   0.56719   0.00000  Uiso   1.00
H358   H     0.06706   0.90080   0.85830   0.00000  Uiso   1.00
H359   H     0.11669   0.85021   0.78202   0.00000  Uiso   1.00
H360   H     0.23243   0.87577   0.81985   0.00000  Uiso   1.00
H361   H     0.43308   0.10232   0.48171   0.00000  Uiso   1.00
H362   H     0.42570   0.09164   0.23519   0.00000  Uiso   1.00
H363   H     0.37920   0.13390   0.15474   0.00000  Uiso   1.00
H364   H     0.27303   0.12245   0.19495   0.00000  Uiso   1.00
H365   H     0.37985   0.14135   0.40543   0.00000  Uiso   1.00
H366   H     0.27769   0.12413   0.44509   0.00000  Uiso   1.00
H367   H     0.43200   0.09910   0.97745   0.00000  Uiso   1.00
H368   H     0.42897   0.09686   0.73037   0.00000  Uiso   1.00
H369   H     0.37503   0.13089   0.65559   0.00000  Uiso   1.00
H370   H     0.28165   0.13394   0.69488   0.00000  Uiso   1.00
H371   H     0.38097   0.13902   0.90514   0.00000  Uiso   1.00
H372   H     0.27331   0.12222   0.94931   0.00000  Uiso   1.00
H373   H     0.37348   0.29692   0.03215   0.00000  Uiso   1.00
H374   H     0.47873   0.29038   0.06711   0.00000  Uiso   1.00
H375   H     0.31239   0.26908   0.10824   0.00000  Uiso   1.00
H376   H     0.37195   0.30018   0.28255   0.00000  Uiso   1.00
H377   H     0.47605   0.29044   0.32033   0.00000  Uiso   1.00
H378   H     0.31218   0.26946   0.35851   0.00000  Uiso   1.00
H379   H     0.37287   0.29779   0.53296   0.00000  Uiso   1.00
H380   H     0.47770   0.29197   0.57014   0.00000  Uiso   1.00
H381   H     0.32323   0.26313   0.60452   0.00000  Uiso   1.00
H382   H     0.36967   0.30405   0.78346   0.00000  Uiso   1.00
H383   H     0.47940   0.29467   0.81573   0.00000  Uiso   1.00
H384   H     0.31542   0.26534   0.85592   0.00000  Uiso   1.00
H385   H     0.43463   0.43437   0.23350   0.00000  Uiso   1.00
H386   H     0.36917   0.46370   0.15518   0.00000  Uiso   1.00
H387   H     0.27352   0.46538   0.19059   0.00000  Uiso   1.00
H388   H     0.37467   0.47235   0.40872   0.00000  Uiso   1.00
H389   H     0.26822   0.45651   0.44241   0.00000  Uiso   1.00
H390   H     0.42165   0.42556   0.48271   0.00000  Uiso   1.00
H391   H     0.32444   0.59492   0.35728   0.00000  Uiso   1.00
H392   H     0.36541   0.45527   0.65418   0.00000  Uiso   1.00
H393   H     0.27595   0.45641   0.69122   0.00000  Uiso   1.00
H394   H     0.37427   0.46502   0.90953   0.00000  Uiso   1.00
H395   H     0.26384   0.45574   0.93903   0.00000  Uiso   1.00
H396   H     0.43490   0.43795   0.73114   0.00000  Uiso   1.00
H397   H     0.42938   0.43332   0.98016   0.00000  Uiso   1.00
H398   H     0.32158   0.59507   0.85434   0.00000  Uiso   1.00
H399   H     0.36920   0.64029   0.03257   0.00000  Uiso   1.00
H400   H     0.47752   0.62552   0.07143   0.00000  Uiso   1.00
H401   H     0.43804   0.76834   0.23168   0.00000  Uiso   1.00
H402   H     0.27037   0.78664   0.19441   0.00000  Uiso   1.00
H403   H     0.37205   0.62111   0.28131   0.00000  Uiso   1.00
H404   H     0.47519   0.62535   0.32165   0.00000  Uiso   1.00
H405   H     0.31111   0.60809   0.10755   0.00000  Uiso   1.00
H406   H     0.42527   0.75735   0.48596   0.00000  Uiso   1.00
H407   H     0.27013   0.78861   0.44570   0.00000  Uiso   1.00
H408   H     0.37854   0.79362   0.15785   0.00000  Uiso   1.00
H409   H     0.37605   0.62804   0.53111   0.00000  Uiso   1.00
H410   H     0.47250   0.62453   0.57202   0.00000  Uiso   1.00
H411   H     0.43220   0.76761   0.72881   0.00000  Uiso   1.00
H412   H     0.37126   0.62298   0.78223   0.00000  Uiso   1.00
H413   H     0.47555   0.62597   0.82260   0.00000  Uiso   1.00
H414   H     0.27160   0.78714   0.94468   0.00000  Uiso   1.00
H415   H     0.43889   0.76962   0.98439   0.00000  Uiso   1.00
H416   H     0.27777   0.79055   0.69600   0.00000  Uiso   1.00
H417   H     0.31525   0.60116   0.60116   0.00000  Uiso   1.00
H418   H     0.37149   0.97205   0.28332   0.00000  Uiso   1.00
H419   H     0.37134   0.96334   0.03280   0.00000  Uiso   1.00
H420   H     0.47727   0.95770   0.06584   0.00000  Uiso   1.00
H421   H     0.32289   0.93239   0.10370   0.00000  Uiso   1.00
H422   H     0.47519   0.95873   0.31534   0.00000  Uiso   1.00
H423   H     0.30974   0.93804   0.35620   0.00000  Uiso   1.00
H424   H     0.37948   0.80203   0.40625   0.00000  Uiso   1.00
H425   H     0.47241   0.96042   0.56702   0.00000  Uiso   1.00
H426   H     0.31544   0.93685   0.60836   0.00000  Uiso   1.00
H427   H     0.37311   0.96649   0.78521   0.00000  Uiso   1.00
H428   H     0.47320   0.96094   0.81713   0.00000  Uiso   1.00
H429   H     0.31525   0.93526   0.85360   0.00000  Uiso   1.00
H430   H     0.37332   0.96224   0.53291   0.00000  Uiso   1.00
H431   H     0.38601   0.82099   0.65091   0.00000  Uiso   1.00
H432   H     0.37804   0.80341   0.90877   0.00000  Uiso   1.00
H433   H     0.62196   0.03593   0.15893   0.00000  Uiso   1.00
H434   H     0.52288   0.04148   0.19309   0.00000  Uiso   1.00
H435   H     0.69142   0.05559   0.23217   0.00000  Uiso   1.00
H436   H     0.52806   0.03779   0.44281   0.00000  Uiso   1.00
H437   H     0.67576   0.07399   0.48499   0.00000  Uiso   1.00
H438   H     0.62060   0.03067   0.40740   0.00000  Uiso   1.00
H439   H     0.62242   0.19815   0.27767   0.00000  Uiso   1.00
H440   H     0.62360   0.02995   0.65376   0.00000  Uiso   1.00
H441   H     0.52463   0.04386   0.69328   0.00000  Uiso   1.00
H442   H     0.68072   0.07278   0.72902   0.00000  Uiso   1.00
H443   H     0.52896   0.03969   0.94284   0.00000  Uiso   1.00
H444   H     0.68891   0.05535   0.98191   0.00000  Uiso   1.00
H445   H     0.63073   0.02977   0.90457   0.00000  Uiso   1.00
H446   H     0.56507   0.24049   0.10868   0.00000  Uiso   1.00
H447   H     0.62490   0.36633   0.16061   0.00000  Uiso   1.00
H448   H     0.52791   0.36945   0.19597   0.00000  Uiso   1.00
H449   H     0.56590   0.22888   0.36296   0.00000  Uiso   1.00
H450   H     0.62606   0.36160   0.40662   0.00000  Uiso   1.00
H451   H     0.52631   0.37207   0.44578   0.00000  Uiso   1.00
H452   H     0.72895   0.20911   0.07088   0.00000  Uiso   1.00
H453   H     0.71934   0.20792   0.32273   0.00000  Uiso   1.00
H454   H     0.68022   0.39962   0.47993   0.00000  Uiso   1.00
H455   H     0.62064   0.20122   0.03056   0.00000  Uiso   1.00
H456   H     0.72320   0.20562   0.82312   0.00000  Uiso   1.00
H457   H     0.62298   0.36475   0.65459   0.00000  Uiso   1.00
H458   H     0.51870   0.38047   0.69800   0.00000  Uiso   1.00
H459   H     0.56282   0.23072   0.85349   0.00000  Uiso   1.00
H460   H     0.57007   0.23476   0.60788   0.00000  Uiso   1.00
H461   H     0.62732   0.36672   0.90882   0.00000  Uiso   1.00
H462   H     0.51726   0.37816   0.94639   0.00000  Uiso   1.00
H463   H     0.72616   0.20903   0.56891   0.00000  Uiso   1.00
H464   H     0.68474   0.39565   0.97861   0.00000  Uiso   1.00
H465   H     0.62067   0.21060   0.53848   0.00000  Uiso   1.00
H466   H     0.68061   0.39831   0.73347   0.00000  Uiso   1.00
H467   H     0.62427   0.20359   0.78515   0.00000  Uiso   1.00
H468   H     0.57272   0.56980   0.10551   0.00000  Uiso   1.00
H469   H     0.62130   0.52830   0.03482   0.00000  Uiso   1.00
H470   H     0.72613   0.54017   0.07473   0.00000  Uiso   1.00
H471   H     0.62151   0.51967   0.27907   0.00000  Uiso   1.00
H472   H     0.72158   0.54358   0.31826   0.00000  Uiso   1.00
H473   H     0.57459   0.57727   0.36150   0.00000  Uiso   1.00
H474   H     0.67657   0.40237   0.23002   0.00000  Uiso   1.00
H475   H     0.56271   0.56197   0.85849   0.00000  Uiso   1.00
H476   H     0.62135   0.52751   0.53473   0.00000  Uiso   1.00
H477   H     0.72677   0.54179   0.56932   0.00000  Uiso   1.00
H478   H     0.62201   0.53714   0.78421   0.00000  Uiso   1.00
H479   H     0.72664   0.54603   0.82146   0.00000  Uiso   1.00
H480   H     0.56221   0.56519   0.60685   0.00000  Uiso   1.00
H481   H     0.68903   0.72970   0.48341   0.00000  Uiso   1.00
H482   H     0.62335   0.70872   0.15886   0.00000  Uiso   1.00
H483   H     0.52491   0.70732   0.20156   0.00000  Uiso   1.00
H484   H     0.68132   0.73219   0.23071   0.00000  Uiso   1.00
H485   H     0.62502   0.70951   0.40967   0.00000  Uiso   1.00
H486   H     0.51740   0.71134   0.44788   0.00000  Uiso   1.00
H487   H     0.68607   0.72979   0.98198   0.00000  Uiso   1.00
H488   H     0.62222   0.70576   0.66051   0.00000  Uiso   1.00
H489   H     0.51913   0.70807   0.69438   0.00000  Uiso   1.00
H490   H     0.67385   0.74213   0.72850   0.00000  Uiso   1.00
H491   H     0.63609   0.68756   0.90647   0.00000  Uiso   1.00
H492   H     0.52384   0.70815   0.94661   0.00000  Uiso   1.00
H493   H     0.57444   0.90679   0.11122   0.00000  Uiso   1.00
H494   H     0.62262   0.86411   0.02968   0.00000  Uiso   1.00
H495   H     0.72533   0.87503   0.07272   0.00000  Uiso   1.00
H496   H     0.57512   0.90541   0.35543   0.00000  Uiso   1.00
H497   H     0.62063   0.85526   0.28662   0.00000  Uiso   1.00
H498   H     0.73174   0.87718   0.32102   0.00000  Uiso   1.00
H499   H     0.56791   0.90324   0.60661   0.00000  Uiso   1.00
H500   H     0.62041   0.86480   0.53129   0.00000  Uiso   1.00
H501   H     0.73224   0.87848   0.57223   0.00000  Uiso   1.00
H502   H     0.56381   0.89476   0.85138   0.00000  Uiso   1.00
H503   H     0.62829   0.87367   0.78447   0.00000  Uiso   1.00
H504   H     0.73401   0.88096   0.81667   0.00000  Uiso   1.00
H505   H     0.93947   0.10207   0.48413   0.00000  Uiso   1.00
H506   H     0.93048   0.09453   0.23143   0.00000  Uiso   1.00
H507   H     0.87970   0.13698   0.15574   0.00000  Uiso   1.00
H508   H     0.77049   0.12491   0.19452   0.00000  Uiso   1.00
H509   H     0.87353   0.13260   0.40765   0.00000  Uiso   1.00
H510   H     0.76731   0.12682   0.44468   0.00000  Uiso   1.00
H511   H     0.92133   0.09052   0.98317   0.00000  Uiso   1.00
H512   H     0.92577   0.08888   0.73614   0.00000  Uiso   1.00
H513   H     0.87555   0.13455   0.65220   0.00000  Uiso   1.00
H514   H     0.88161   0.14451   0.90777   0.00000  Uiso   1.00
H515   H     0.77233   0.12460   0.94535   0.00000  Uiso   1.00
H516   H     0.77753   0.12814   0.69312   0.00000  Uiso   1.00
H517   H     0.87096   0.30063   0.03460   0.00000  Uiso   1.00
H518   H     0.97053   0.29490   0.06758   0.00000  Uiso   1.00
H519   H     0.81407   0.26191   0.10528   0.00000  Uiso   1.00
H520   H     0.87625   0.29351   0.28253   0.00000  Uiso   1.00
H521   H     0.97685   0.29167   0.32076   0.00000  Uiso   1.00
H522   H     0.81143   0.27014   0.35758   0.00000  Uiso   1.00
H523   H     0.87495   0.30181   0.53239   0.00000  Uiso   1.00
H524   H     0.98347   0.28552   0.57014   0.00000  Uiso   1.00
H525   H     0.81282   0.26052   0.60663   0.00000  Uiso   1.00
H526   H     0.86637   0.31382   0.77830   0.00000  Uiso   1.00
H527   H     0.97316   0.29041   0.82271   0.00000  Uiso   1.00
H528   H     0.81228   0.27293   0.86052   0.00000  Uiso   1.00
H529   H     0.87767   0.46642   0.15919   0.00000  Uiso   1.00
H530   H     0.77718   0.45924   0.19720   0.00000  Uiso   1.00
H531   H     0.87329   0.46511   0.41104   0.00000  Uiso   1.00
H532   H     0.77239   0.45952   0.44353   0.00000  Uiso   1.00
H533   H     0.93089   0.43011   0.23252   0.00000  Uiso   1.00
H534   H     0.92661   0.42711   0.48402   0.00000  Uiso   1.00
H535   H     0.82440   0.59216   0.35817   0.00000  Uiso   1.00
H536   H     0.87660   0.46444   0.65974   0.00000  Uiso   1.00
H537   H     0.92659   0.43552   0.98253   0.00000  Uiso   1.00
H538   H     0.77173   0.45904   0.69816   0.00000  Uiso   1.00
H539   H     0.88435   0.47329   0.90910   0.00000  Uiso   1.00
H540   H     0.77105   0.45820   0.94652   0.00000  Uiso   1.00
H541   H     0.91964   0.42499   0.73379   0.00000  Uiso   1.00
H542   H     0.81953   0.59818   0.60856   0.00000  Uiso   1.00
H543   H     0.77087   0.79188   0.19575   0.00000  Uiso   1.00
H544   H     0.87213   0.62546   0.03774   0.00000  Uiso   1.00
H545   H     0.97600   0.62669   0.07040   0.00000  Uiso   1.00
H546   H     0.92904   0.76585   0.23383   0.00000  Uiso   1.00
H547   H     0.87348   0.62485   0.28656   0.00000  Uiso   1.00
H548   H     0.97397   0.62743   0.32321   0.00000  Uiso   1.00
H549   H     0.81380   0.60642   0.10798   0.00000  Uiso   1.00
H550   H     0.93717   0.76617   0.48168   0.00000  Uiso   1.00
H551   H     0.77638   0.79439   0.44728   0.00000  Uiso   1.00
H552   H     0.77303   0.79512   0.69889   0.00000  Uiso   1.00
H553   H     0.87711   0.62586   0.53541   0.00000  Uiso   1.00
H554   H     0.97712   0.62466   0.57432   0.00000  Uiso   1.00
H555   H     0.93154   0.76721   0.73132   0.00000  Uiso   1.00
H556   H     0.77415   0.79194   0.94739   0.00000  Uiso   1.00
H557   H     0.92191   0.75971   0.98777   0.00000  Uiso   1.00
H558   H     0.86805   0.64520   0.78281   0.00000  Uiso   1.00
H559   H     0.97692   0.62398   0.81953   0.00000  Uiso   1.00
H560   H     0.80843   0.60879   0.85964   0.00000  Uiso   1.00
H561   H     0.87727   0.96260   0.03438   0.00000  Uiso   1.00
H562   H     0.97940   0.95847   0.06896   0.00000  Uiso   1.00
H563   H     0.81273   0.94172   0.10660   0.00000  Uiso   1.00
H564   H     0.87315   0.96339   0.28539   0.00000  Uiso   1.00
H565   H     0.97399   0.96101   0.32235   0.00000  Uiso   1.00
H566   H     0.82016   0.93519   0.35749   0.00000  Uiso   1.00
H567   H     0.88039   0.80868   0.15981   0.00000  Uiso   1.00
H568   H     0.87909   0.81468   0.40573   0.00000  Uiso   1.00
H569   H     0.87408   0.96999   0.53201   0.00000  Uiso   1.00
H570   H     0.97350   0.96366   0.57427   0.00000  Uiso   1.00
H571   H     0.82242   0.93897   0.60453   0.00000  Uiso   1.00
H572   H     0.98438   0.95606   0.81736   0.00000  Uiso   1.00
H573   H     0.81951   0.93016   0.86049   0.00000  Uiso   1.00
H574   H     0.88173   0.96532   0.78169   0.00000  Uiso   1.00
H575   H     0.87820   0.80536   0.65598   0.00000  Uiso   1.00
H576   H     0.88160   0.80223   0.91015   0.00000  Uiso   1.00
C577   C     0.11032   0.19120   0.39755   0.00000  Uiso   1.00
C578   C     0.17558   0.18080   0.19690   0.00000  Uiso   1.00
C579   C     0.17761   0.17894   0.44557   0.00000  Uiso   1.00
C580   C     0.14471   0.03581   0.11784   0.00000  Uiso   1.00
C581   C     0.18784   0.04549   0.11383   0.00000  Uiso   1.00
C582   C     0.14594   0.02294   0.02437   0.00000  Uiso   1.00
C583   C     0.17929   0.04856   0.01999   0.00000  Uiso   1.00
C584   C     0.07690   0.01544   0.07312   0.00000  Uiso   1.00
C585   C     0.12149   0.02563   0.07249   0.00000  Uiso   1.00
C586   C     0.22179   0.09761   0.06831   0.00000  Uiso   1.00
C587   C     0.20016   0.06038   0.06632   0.00000  Uiso   1.00
C588   C     0.14315   0.03721   0.37016   0.00000  Uiso   1.00
C589   C     0.18307   0.05293   0.36663   0.00000  Uiso   1.00
C590   C     0.14456   0.02766   0.27582   0.00000  Uiso   1.00
C591   C     0.17664   0.05563   0.27103   0.00000  Uiso   1.00
C592   C     0.07581   0.01321   0.32277   0.00000  Uiso   1.00
C593   C     0.12172   0.02481   0.32337   0.00000  Uiso   1.00
C594   C     0.22457   0.10092   0.31883   0.00000  Uiso   1.00
C595   C     0.19786   0.06723   0.31768   0.00000  Uiso   1.00
C596   C     0.12825   0.18856   0.19911   0.00000  Uiso   1.00
C597   C     0.13124   0.18937   0.44571   0.00000  Uiso   1.00
C598   C     0.10338   0.18702   0.15250   0.00000  Uiso   1.00
C599   C     0.10787   0.19683   0.49449   0.00000  Uiso   1.00
C600   C     0.12848   0.18507   0.69446   0.00000  Uiso   1.00
C601   C     0.17383   0.18436   0.94541   0.00000  Uiso   1.00
C602   C     0.14392   0.03329   0.62076   0.00000  Uiso   1.00
C603   C     0.18595   0.04681   0.61708   0.00000  Uiso   1.00
C604   C     0.14146   0.03121   0.52226   0.00000  Uiso   1.00
C605   C     0.17704   0.05301   0.51967   0.00000  Uiso   1.00
C606   C     0.07618   0.02139   0.57163   0.00000  Uiso   1.00
C607   C     0.12135   0.02944   0.57150   0.00000  Uiso   1.00
C608   C     0.22653   0.09952   0.56724   0.00000  Uiso   1.00
C609   C     0.19883   0.06466   0.56883   0.00000  Uiso   1.00
C610   C     0.14305   0.03608   0.87062   0.00000  Uiso   1.00
C611   C     0.18413   0.04790   0.86623   0.00000  Uiso   1.00
C612   C     0.14230   0.02613   0.77454   0.00000  Uiso   1.00
C613   C     0.17345   0.05511   0.77134   0.00000  Uiso   1.00
C614   C     0.07563   0.01817   0.82421   0.00000  Uiso   1.00
C615   C     0.12168   0.02417   0.82453   0.00000  Uiso   1.00
C616   C     0.22309   0.09990   0.81760   0.00000  Uiso   1.00
C617   C     0.19425   0.06705   0.81671   0.00000  Uiso   1.00
C618   C     0.17531   0.17824   0.69387   0.00000  Uiso   1.00
C619   C     0.13049   0.19567   0.94603   0.00000  Uiso   1.00
C620   C     0.10817   0.19784   0.89855   0.00000  Uiso   1.00
C621   C     0.10700   0.18742   0.64657   0.00000  Uiso   1.00
C622   C     0.10695   0.19277   0.74262   0.00000  Uiso   1.00
C623   C     0.14566   0.35991   0.26554   0.00000  Uiso   1.00
C624   C     0.18486   0.38447   0.11854   0.00000  Uiso   1.00
C625   C     0.17820   0.38409   0.01990   0.00000  Uiso   1.00
C626   C     0.14384   0.35964   0.02479   0.00000  Uiso   1.00
C627   C     0.17848   0.38710   0.26511   0.00000  Uiso   1.00
C628   C     0.07051   0.21334   0.14864   0.00000  Uiso   1.00
C629   C     0.14205   0.37215   0.12075   0.00000  Uiso   1.00
C630   C     0.02716   0.26513   0.19318   0.00000  Uiso   1.00
C631   C     0.05102   0.22795   0.19647   0.00000  Uiso   1.00
C632   C     0.14691   0.36260   0.36451   0.00000  Uiso   1.00
C633   C     0.06462   0.21331   0.24471   0.00000  Uiso   1.00
C634   C     0.07583   0.34847   0.07296   0.00000  Uiso   1.00
C635   C     0.11937   0.36187   0.07324   0.00000  Uiso   1.00
C636   C     0.07431   0.21680   0.39423   0.00000  Uiso   1.00
C637   C     0.02677   0.26289   0.44399   0.00000  Uiso   1.00
C638   C     0.05473   0.22812   0.44210   0.00000  Uiso   1.00
C639   C     0.18572   0.38068   0.36196   0.00000  Uiso   1.00
C640   C     0.07724   0.34822   0.31516   0.00000  Uiso   1.00
C641   C     0.12415   0.35546   0.31486   0.00000  Uiso   1.00
C642   C     0.06505   0.20913   0.48969   0.00000  Uiso   1.00
C643   C     0.19696   0.39810   0.31334   0.00000  Uiso   1.00
C644   C     0.10767   0.20051   0.24623   0.00000  Uiso   1.00
C645   C     0.19722   0.39880   0.06832   0.00000  Uiso   1.00
C646   C     0.14261   0.35693   0.77135   0.00000  Uiso   1.00
C647   C     0.17662   0.38398   0.76741   0.00000  Uiso   1.00
C648   C     0.14441   0.36176   0.61978   0.00000  Uiso   1.00
C649   C     0.06770   0.21723   0.99308   0.00000  Uiso   1.00
C650   C     0.14094   0.36558   0.86763   0.00000  Uiso   1.00
C651   C     0.07567   0.21508   0.64334   0.00000  Uiso   1.00
C652   C     0.18277   0.37762   0.86292   0.00000  Uiso   1.00
C653   C     0.02908   0.26448   0.69489   0.00000  Uiso   1.00
C654   C     0.05688   0.22974   0.69357   0.00000  Uiso   1.00
C655   C     0.14334   0.35419   0.52333   0.00000  Uiso   1.00
C656   C     0.06617   0.20873   0.74200   0.00000  Uiso   1.00
C657   C     0.07659   0.34717   0.57092   0.00000  Uiso   1.00
C658   C     0.12165   0.35502   0.57244   0.00000  Uiso   1.00
C659   C     0.07206   0.22077   0.89752   0.00000  Uiso   1.00
C660   C     0.17450   0.38102   0.51784   0.00000  Uiso   1.00
C661   C     0.02483   0.26610   0.94488   0.00000  Uiso   1.00
C662   C     0.05312   0.23280   0.94468   0.00000  Uiso   1.00
C663   C     0.18489   0.37530   0.61510   0.00000  Uiso   1.00
C664   C     0.07425   0.34586   0.82063   0.00000  Uiso   1.00
C665   C     0.11912   0.35694   0.82060   0.00000  Uiso   1.00
C666   C     0.19637   0.39288   0.56538   0.00000  Uiso   1.00
C667   C     0.10834   0.20275   0.99535   0.00000  Uiso   1.00
C668   C     0.19575   0.39571   0.81618   0.00000  Uiso   1.00
C669   C     0.22246   0.43602   0.31335   0.00000  Uiso   1.00
C670   C     0.10926   0.53245   0.14749   0.00000  Uiso   1.00
C671   C     0.06736   0.54622   0.49123   0.00000  Uiso   1.00
C672   C     0.07853   0.56174   0.14263   0.00000  Uiso   1.00
C673   C     0.17337   0.51745   0.19373   0.00000  Uiso   1.00
C674   C     0.13009   0.52934   0.19540   0.00000  Uiso   1.00
C675   C     0.05537   0.57138   0.19004   0.00000  Uiso   1.00
C676   C     0.10479   0.53415   0.24185   0.00000  Uiso   1.00
C677   C     0.06354   0.54982   0.23653   0.00000  Uiso   1.00
C678   C     0.22050   0.43501   0.06754   0.00000  Uiso   1.00
C679   C     0.10627   0.52206   0.39615   0.00000  Uiso   1.00
C680   C     0.07078   0.54873   0.39403   0.00000  Uiso   1.00
C681   C     0.17365   0.51356   0.44372   0.00000  Uiso   1.00
C682   C     0.12866   0.52106   0.44386   0.00000  Uiso   1.00
C683   C     0.05519   0.56563   0.44195   0.00000  Uiso   1.00
C684   C     0.10798   0.53253   0.49314   0.00000  Uiso   1.00
C685   C     0.10207   0.52226   0.65137   0.00000  Uiso   1.00
C686   C     0.07043   0.54906   0.64810   0.00000  Uiso   1.00
C687   C     0.17130   0.51373   0.69515   0.00000  Uiso   1.00
C688   C     0.12597   0.52130   0.69740   0.00000  Uiso   1.00
C689   C     0.05311   0.56423   0.69526   0.00000  Uiso   1.00
C690   C     0.10848   0.53440   0.74516   0.00000  Uiso   1.00
C691   C     0.06228   0.54658   0.99271   0.00000  Uiso   1.00
C692   C     0.06744   0.54992   0.74469   0.00000  Uiso   1.00
C693   C     0.22320   0.42862   0.56785   0.00000  Uiso   1.00
C694   C     0.10247   0.52973   0.89654   0.00000  Uiso   1.00
C695   C     0.06570   0.55130   0.89562   0.00000  Uiso   1.00
C696   C     0.17160   0.51854   0.94324   0.00000  Uiso   1.00
C697   C     0.12656   0.53218   0.94374   0.00000  Uiso   1.00
C698   C     0.04579   0.56179   0.94531   0.00000  Uiso   1.00
C699   C     0.22089   0.43179   0.81785   0.00000  Uiso   1.00
C700   C     0.10562   0.53842   0.99479   0.00000  Uiso   1.00
C701   C     0.02618   0.59831   0.69674   0.00000  Uiso   1.00
C702   C     0.14162   0.70364   0.12386   0.00000  Uiso   1.00
C703   C     0.18296   0.71495   0.12113   0.00000  Uiso   1.00
C704   C     0.14372   0.68779   0.02954   0.00000  Uiso   1.00
C705   C     0.17993   0.71127   0.02507   0.00000  Uiso   1.00
C706   C     0.07461   0.68301   0.07289   0.00000  Uiso   1.00
C707   C     0.11999   0.69188   0.07605   0.00000  Uiso   1.00
C708   C     0.22240   0.76378   0.06975   0.00000  Uiso   1.00
C709   C     0.19675   0.72755   0.07149   0.00000  Uiso   1.00
C710   C     0.14350   0.70061   0.36965   0.00000  Uiso   1.00
C711   C     0.18532   0.71535   0.36369   0.00000  Uiso   1.00
C712   C     0.13949   0.69596   0.27203   0.00000  Uiso   1.00
C713   C     0.17089   0.72280   0.26928   0.00000  Uiso   1.00
C714   C     0.07357   0.68295   0.32165   0.00000  Uiso   1.00
C715   C     0.12011   0.69153   0.32233   0.00000  Uiso   1.00
C716   C     0.22111   0.76649   0.31696   0.00000  Uiso   1.00
C717   C     0.19478   0.73346   0.31603   0.00000  Uiso   1.00
C718   C     0.03026   0.60652   0.19516   0.00000  Uiso   1.00
C719   C     0.02712   0.60080   0.44346   0.00000  Uiso   1.00
C720   C     0.14324   0.70514   0.62048   0.00000  Uiso   1.00
C721   C     0.18723   0.71428   0.61550   0.00000  Uiso   1.00
C722   C     0.14512   0.69202   0.52482   0.00000  Uiso   1.00
C723   C     0.18065   0.71660   0.52078   0.00000  Uiso   1.00
C724   C     0.07595   0.68510   0.57246   0.00000  Uiso   1.00
C725   C     0.12149   0.69412   0.57414   0.00000  Uiso   1.00
C726   C     0.22722   0.76507   0.56888   0.00000  Uiso   1.00
C727   C     0.20075   0.73018   0.56701   0.00000  Uiso   1.00
C728   C     0.14699   0.69305   0.86858   0.00000  Uiso   1.00
C729   C     0.18569   0.71019   0.86377   0.00000  Uiso   1.00
C730   C     0.14061   0.68979   0.76992   0.00000  Uiso   1.00
C731   C     0.17527   0.71536   0.76780   0.00000  Uiso   1.00
C732   C     0.07540   0.67862   0.82200   0.00000  Uiso   1.00
C733   C     0.12162   0.68650   0.82214   0.00000  Uiso   1.00
C734   C     0.21994   0.76504   0.81637   0.00000  Uiso   1.00
C735   C     0.19601   0.72867   0.81377   0.00000  Uiso   1.00
C736   C     0.02426   0.60008   0.94800   0.00000  Uiso   1.00
C737   C     0.11031   0.86289   0.14920   0.00000  Uiso   1.00
C738   C     0.07562   0.88718   0.14869   0.00000  Uiso   1.00
C739   C     0.17854   0.84999   0.19519   0.00000  Uiso   1.00
C740   C     0.13378   0.86309   0.19709   0.00000  Uiso   1.00
C741   C     0.02953   0.93277   0.19702   0.00000  Uiso   1.00
C742   C     0.05421   0.89653   0.19607   0.00000  Uiso   1.00
C743   C     0.11302   0.87147   0.24674   0.00000  Uiso   1.00
C744   C     0.06934   0.87980   0.24457   0.00000  Uiso   1.00
C745   C     0.10572   0.86003   0.39916   0.00000  Uiso   1.00
C746   C     0.07263   0.88694   0.39630   0.00000  Uiso   1.00
C747   C     0.17793   0.85187   0.44491   0.00000  Uiso   1.00
C748   C     0.13091   0.86360   0.44477   0.00000  Uiso   1.00
C749   C     0.02623   0.93596   0.44586   0.00000  Uiso   1.00
C750   C     0.05310   0.90103   0.44494   0.00000  Uiso   1.00
C751   C     0.10823   0.86865   0.49564   0.00000  Uiso   1.00
C752   C     0.06732   0.88390   0.49330   0.00000  Uiso   1.00
C753   C     0.10971   0.86244   0.64678   0.00000  Uiso   1.00
C754   C     0.07572   0.88900   0.64456   0.00000  Uiso   1.00
C755   C     0.17621   0.84740   0.69418   0.00000  Uiso   1.00
C756   C     0.12921   0.85765   0.69536   0.00000  Uiso   1.00
C757   C     0.02803   0.93303   0.69514   0.00000  Uiso   1.00
C758   C     0.05623   0.89879   0.69359   0.00000  Uiso   1.00
C759   C     0.10559   0.86184   0.74395   0.00000  Uiso   1.00
C760   C     0.06678   0.87999   0.74146   0.00000  Uiso   1.00
C761   C     0.10697   0.85935   0.89827   0.00000  Uiso   1.00
C762   C     0.07375   0.88495   0.89556   0.00000  Uiso   1.00
C763   C     0.17644   0.84902   0.94586   0.00000  Uiso   1.00
C764   C     0.13137   0.85808   0.94573   0.00000  Uiso   1.00
C765   C     0.02945   0.93369   0.94632   0.00000  Uiso   1.00
C766   C     0.05242   0.89577   0.94518   0.00000  Uiso   1.00
C767   C     0.10900   0.86514   0.99453   0.00000  Uiso   1.00
C768   C     0.06708   0.87842   0.99279   0.00000  Uiso   1.00
C769   C     0.38935   0.13760   0.01729   0.00000  Uiso   1.00
C770   C     0.42444   0.11247   0.01493   0.00000  Uiso   1.00
C771   C     0.32571   0.15176   0.07121   0.00000  Uiso   1.00
C772   C     0.37043   0.14039   0.06814   0.00000  Uiso   1.00
C773   C     0.47440   0.06703   0.06394   0.00000  Uiso   1.00
C774   C     0.44540   0.10156   0.06298   0.00000  Uiso   1.00
C775   C     0.39473   0.13502   0.11474   0.00000  Uiso   1.00
C776   C     0.43522   0.11998   0.11129   0.00000  Uiso   1.00
C777   C     0.38989   0.13451   0.26866   0.00000  Uiso   1.00
C778   C     0.42491   0.11078   0.26783   0.00000  Uiso   1.00
C779   C     0.32498   0.14838   0.31890   0.00000  Uiso   1.00
C780   C     0.36949   0.13816   0.31785   0.00000  Uiso   1.00
C781   C     0.47195   0.06643   0.31759   0.00000  Uiso   1.00
C782   C     0.44750   0.10403   0.31508   0.00000  Uiso   1.00
C783   C     0.39425   0.13693   0.36688   0.00000  Uiso   1.00
C784   C     0.43497   0.12180   0.36267   0.00000  Uiso   1.00
C785   C     0.39679   0.14365   0.52461   0.00000  Uiso   1.00
C786   C     0.42885   0.11672   0.51951   0.00000  Uiso   1.00
C787   C     0.32856   0.15188   0.57107   0.00000  Uiso   1.00
C788   C     0.37299   0.14382   0.57348   0.00000  Uiso   1.00
C789   C     0.47388   0.06623   0.56866   0.00000  Uiso   1.00
C790   C     0.44749   0.10153   0.56748   0.00000  Uiso   1.00
C791   C     0.39365   0.13210   0.62008   0.00000  Uiso   1.00
C792   C     0.43549   0.11916   0.61645   0.00000  Uiso   1.00
C793   C     0.39359   0.14103   0.77241   0.00000  Uiso   1.00
C794   C     0.42462   0.11220   0.76905   0.00000  Uiso   1.00
C795   C     0.32576   0.15220   0.82097   0.00000  Uiso   1.00
C796   C     0.37338   0.14454   0.81977   0.00000  Uiso   1.00
C797   C     0.47420   0.06867   0.81849   0.00000  Uiso   1.00
C798   C     0.44476   0.10178   0.81689   0.00000  Uiso   1.00
C799   C     0.39487   0.13757   0.86780   0.00000  Uiso   1.00
C800   C     0.43550   0.12096   0.86513   0.00000  Uiso   1.00
C801   C     0.35616   0.29824   0.24353   0.00000  Uiso   1.00
C802   C     0.31317   0.28756   0.24095   0.00000  Uiso   1.00
C803   C     0.35839   0.30651   0.14811   0.00000  Uiso   1.00
C804   C     0.32274   0.28051   0.14467   0.00000  Uiso   1.00
C805   C     0.42428   0.31841   0.19815   0.00000  Uiso   1.00
C806   C     0.37894   0.30785   0.19796   0.00000  Uiso   1.00
C807   C     0.27664   0.23364   0.19318   0.00000  Uiso   1.00
C808   C     0.30332   0.26878   0.19230   0.00000  Uiso   1.00
C809   C     0.31565   0.28319   0.49188   0.00000  Uiso   1.00
C810   C     0.36020   0.30158   0.39610   0.00000  Uiso   1.00
C811   C     0.32246   0.28202   0.39582   0.00000  Uiso   1.00
C812   C     0.42574   0.31324   0.44542   0.00000  Uiso   1.00
C813   C     0.38031   0.30339   0.44598   0.00000  Uiso   1.00
C814   C     0.27863   0.23200   0.44300   0.00000  Uiso   1.00
C815   C     0.30263   0.26895   0.44323   0.00000  Uiso   1.00
C816   C     0.35790   0.29537   0.49463   0.00000  Uiso   1.00
C817   C     0.47096   0.39996   0.06844   0.00000  Uiso   1.00
C818   C     0.35800   0.29982   0.74130   0.00000  Uiso   1.00
C819   C     0.31570   0.28612   0.73677   0.00000  Uiso   1.00
C820   C     0.36139   0.30289   0.64614   0.00000  Uiso   1.00
C821   C     0.32740   0.27631   0.64334   0.00000  Uiso   1.00
C822   C     0.42604   0.31432   0.69432   0.00000  Uiso   1.00
C823   C     0.38196   0.30380   0.69550   0.00000  Uiso   1.00
C824   C     0.27561   0.23447   0.69357   0.00000  Uiso   1.00
C825   C     0.30427   0.26665   0.69038   0.00000  Uiso   1.00
C826   C     0.31718   0.28206   0.99137   0.00000  Uiso   1.00
C827   C     0.35643   0.30855   0.89870   0.00000  Uiso   1.00
C828   C     0.32340   0.28106   0.89466   0.00000  Uiso   1.00
C829   C     0.42378   0.32231   0.94434   0.00000  Uiso   1.00
C830   C     0.37909   0.31041   0.94747   0.00000  Uiso   1.00
C831   C     0.27888   0.23125   0.94280   0.00000  Uiso   1.00
C832   C     0.30492   0.26727   0.94209   0.00000  Uiso   1.00
C833   C     0.35886   0.29725   0.99412   0.00000  Uiso   1.00
C834   C     0.44452   0.43538   0.31901   0.00000  Uiso   1.00
C835   C     0.38947   0.46360   0.37056   0.00000  Uiso   1.00
C836   C     0.27530   0.56608   0.44290   0.00000  Uiso   1.00
C837   C     0.39108   0.47680   0.02462   0.00000  Uiso   1.00
C838   C     0.42305   0.44860   0.01987   0.00000  Uiso   1.00
C839   C     0.32115   0.48564   0.06646   0.00000  Uiso   1.00
C840   C     0.36738   0.47595   0.07017   0.00000  Uiso   1.00
C841   C     0.44091   0.43290   0.06742   0.00000  Uiso   1.00
C842   C     0.38630   0.46545   0.11816   0.00000  Uiso   1.00
C843   C     0.42823   0.45099   0.11690   0.00000  Uiso   1.00
C844   C     0.27555   0.57004   0.19092   0.00000  Uiso   1.00
C845   C     0.43111   0.45089   0.36759   0.00000  Uiso   1.00
C846   C     0.39110   0.47160   0.27565   0.00000  Uiso   1.00
C847   C     0.42239   0.44421   0.27163   0.00000  Uiso   1.00
C848   C     0.32420   0.48696   0.31923   0.00000  Uiso   1.00
C849   C     0.36810   0.47308   0.32223   0.00000  Uiso   1.00
C850   C     0.30550   0.59950   0.44140   0.00000  Uiso   1.00
C851   C     0.47165   0.40035   0.32114   0.00000  Uiso   1.00
C852   C     0.43217   0.45215   0.86976   0.00000  Uiso   1.00
C853   C     0.44476   0.43605   0.81962   0.00000  Uiso   1.00
C854   C     0.38609   0.46815   0.51954   0.00000  Uiso   1.00
C855   C     0.41778   0.44177   0.51906   0.00000  Uiso   1.00
C856   C     0.32036   0.48161   0.56848   0.00000  Uiso   1.00
C857   C     0.36356   0.47089   0.56831   0.00000  Uiso   1.00
C858   C     0.44338   0.43613   0.56623   0.00000  Uiso   1.00
C859   C     0.38409   0.45955   0.61623   0.00000  Uiso   1.00
C860   C     0.42767   0.44964   0.61464   0.00000  Uiso   1.00
C861   C     0.27411   0.56483   0.69086   0.00000  Uiso   1.00
C862   C     0.38982   0.46483   0.87122   0.00000  Uiso   1.00
C863   C     0.39072   0.47412   0.77560   0.00000  Uiso   1.00
C864   C     0.42527   0.45020   0.77008   0.00000  Uiso   1.00
C865   C     0.27744   0.56658   0.93891   0.00000  Uiso   1.00
C866   C     0.32262   0.48329   0.81995   0.00000  Uiso   1.00
C867   C     0.36948   0.47655   0.82459   0.00000  Uiso   1.00
C868   C     0.47298   0.40179   0.82018   0.00000  Uiso   1.00
C869   C     0.46908   0.40115   0.56964   0.00000  Uiso   1.00
C870   C     0.30070   0.59863   0.68830   0.00000  Uiso   1.00
C871   C     0.36074   0.63795   0.39619   0.00000  Uiso   1.00
C872   C     0.35686   0.64077   0.14868   0.00000  Uiso   1.00
C873   C     0.31736   0.62219   0.14425   0.00000  Uiso   1.00
C874   C     0.42494   0.65010   0.19900   0.00000  Uiso   1.00
C875   C     0.38002   0.63994   0.19673   0.00000  Uiso   1.00
C876   C     0.35752   0.62733   0.24275   0.00000  Uiso   1.00
C877   C     0.43092   0.78436   0.01996   0.00000  Uiso   1.00
C878   C     0.47295   0.73455   0.07122   0.00000  Uiso   1.00
C879   C     0.45067   0.77207   0.06741   0.00000  Uiso   1.00
C880   C     0.43527   0.78571   0.11589   0.00000  Uiso   1.00
C881   C     0.42523   0.65048   0.44584   0.00000  Uiso   1.00
C882   C     0.38238   0.64082   0.44499   0.00000  Uiso   1.00
C883   C     0.42892   0.77975   0.26869   0.00000  Uiso   1.00
C884   C     0.31938   0.61527   0.49088   0.00000  Uiso   1.00
C885   C     0.31406   0.62018   0.23971   0.00000  Uiso   1.00
C886   C     0.47472   0.73372   0.32143   0.00000  Uiso   1.00
C887   C     0.44902   0.76910   0.31678   0.00000  Uiso   1.00
C888   C     0.43466   0.78507   0.36405   0.00000  Uiso   1.00
C889   C     0.32702   0.61175   0.39489   0.00000  Uiso   1.00
C890   C     0.36006   0.62872   0.49190   0.00000  Uiso   1.00
C891   C     0.29901   0.60639   0.19014   0.00000  Uiso   1.00
C892   C     0.39232   0.79640   0.36730   0.00000  Uiso   1.00
C893   C     0.35959   0.63527   0.89681   0.00000  Uiso   1.00
C894   C     0.31498   0.61401   0.73877   0.00000  Uiso   1.00
C895   C     0.43768   0.79456   0.61114   0.00000  Uiso   1.00
C896   C     0.31473   0.61928   0.98586   0.00000  Uiso   1.00
C897   C     0.32846   0.60797   0.89166   0.00000  Uiso   1.00
C898   C     0.42257   0.64720   0.69684   0.00000  Uiso   1.00
C899   C     0.37683   0.63624   0.69559   0.00000  Uiso   1.00
C900   C     0.42399   0.77849   0.51697   0.00000  Uiso   1.00
C901   C     0.47052   0.73403   0.56918   0.00000  Uiso   1.00
C902   C     0.44593   0.77017   0.56600   0.00000  Uiso   1.00
C903   C     0.32137   0.61140   0.64118   0.00000  Uiso   1.00
C904   C     0.42413   0.65066   0.94650   0.00000  Uiso   1.00
C905   C     0.37837   0.64175   0.94548   0.00000  Uiso   1.00
C906   C     0.42554   0.78264   0.76811   0.00000  Uiso   1.00
C907   C     0.35604   0.63723   0.64814   0.00000  Uiso   1.00
C908   C     0.46950   0.73227   0.81913   0.00000  Uiso   1.00
C909   C     0.44402   0.76764   0.81791   0.00000  Uiso   1.00
C910   C     0.35591   0.62333   0.74211   0.00000  Uiso   1.00
C911   C     0.35571   0.63137   0.99274   0.00000  Uiso   1.00
C912   C     0.43233   0.78444   0.86462   0.00000  Uiso   1.00
C913   C     0.30478   0.60017   0.93754   0.00000  Uiso   1.00
C914   C     0.39194   0.79811   0.86859   0.00000  Uiso   1.00
C915   C     0.35767   0.96613   0.49483   0.00000  Uiso   1.00
C916   C     0.35684   0.96708   0.24349   0.00000  Uiso   1.00
C917   C     0.31639   0.95202   0.23826   0.00000  Uiso   1.00
C918   C     0.35565   0.97491   0.14877   0.00000  Uiso   1.00
C919   C     0.32569   0.94662   0.14211   0.00000  Uiso   1.00
C920   C     0.42223   0.98563   0.19266   0.00000  Uiso   1.00
C921   C     0.37734   0.97899   0.19665   0.00000  Uiso   1.00
C922   C     0.28118   0.89641   0.19187   0.00000  Uiso   1.00
C923   C     0.30625   0.93448   0.19013   0.00000  Uiso   1.00
C924   C     0.35328   0.97651   0.39704   0.00000  Uiso   1.00
C925   C     0.32156   0.94963   0.39513   0.00000  Uiso   1.00
C926   C     0.42393   0.98488   0.44418   0.00000  Uiso   1.00
C927   C     0.37703   0.97725   0.44577   0.00000  Uiso   1.00
C928   C     0.27862   0.89800   0.44400   0.00000  Uiso   1.00
C929   C     0.30623   0.93337   0.44341   0.00000  Uiso   1.00
C930   C     0.32490   0.81216   0.31931   0.00000  Uiso   1.00
C931   C     0.32665   0.81398   0.06894   0.00000  Uiso   1.00
C932   C     0.37061   0.80534   0.31895   0.00000  Uiso   1.00
C933   C     0.37244   0.80882   0.07112   0.00000  Uiso   1.00
C934   C     0.31763   0.94896   0.49184   0.00000  Uiso   1.00
C935   C     0.39614   0.80953   0.02284   0.00000  Uiso   1.00
C936   C     0.39370   0.80400   0.26957   0.00000  Uiso   1.00
C937   C     0.39371   0.80029   0.11985   0.00000  Uiso   1.00
C938   C     0.36895   0.80495   0.82059   0.00000  Uiso   1.00
C939   C     0.39092   0.80583   0.51783   0.00000  Uiso   1.00
C940   C     0.32631   0.82051   0.56711   0.00000  Uiso   1.00
C941   C     0.31556   0.94998   0.98832   0.00000  Uiso   1.00
C942   C     0.35825   0.96601   0.74557   0.00000  Uiso   1.00
C943   C     0.31693   0.95120   0.74253   0.00000  Uiso   1.00
C944   C     0.35829   0.97308   0.64863   0.00000  Uiso   1.00
C945   C     0.32419   0.94683   0.64737   0.00000  Uiso   1.00
C946   C     0.42489   0.98561   0.69319   0.00000  Uiso   1.00
C947   C     0.37889   0.97700   0.69587   0.00000  Uiso   1.00
C948   C     0.27631   0.89868   0.69409   0.00000  Uiso   1.00
C949   C     0.30372   0.93396   0.69470   0.00000  Uiso   1.00
C950   C     0.35803   0.97219   0.89642   0.00000  Uiso   1.00
C951   C     0.32315   0.94588   0.89249   0.00000  Uiso   1.00
C952   C     0.42437   0.98647   0.94186   0.00000  Uiso   1.00
C953   C     0.38013   0.97296   0.94412   0.00000  Uiso   1.00
C954   C     0.27760   0.89586   0.94162   0.00000  Uiso   1.00
C955   C     0.30353   0.93098   0.94035   0.00000  Uiso   1.00
C956   C     0.32497   0.81467   0.82246   0.00000  Uiso   1.00
C957   C     0.37247   0.81436   0.56613   0.00000  Uiso   1.00
C958   C     0.35732   0.96255   0.99185   0.00000  Uiso   1.00
C959   C     0.39070   0.80719   0.77349   0.00000  Uiso   1.00
C960   C     0.39779   0.81304   0.61356   0.00000  Uiso   1.00
C961   C     0.67458   0.18671   0.19554   0.00000  Uiso   1.00
C962   C     0.64083   0.03151   0.12170   0.00000  Uiso   1.00
C963   C     0.68290   0.04559   0.11791   0.00000  Uiso   1.00
C964   C     0.64547   0.02089   0.02381   0.00000  Uiso   1.00
C965   C     0.67912   0.04582   0.02252   0.00000  Uiso   1.00
C966   C     0.57521   0.01451   0.06909   0.00000  Uiso   1.00
C967   C     0.62040   0.02112   0.07351   0.00000  Uiso   1.00
C968   C     0.72199   0.09821   0.07069   0.00000  Uiso   1.00
C969   C     0.69677   0.06132   0.06843   0.00000  Uiso   1.00
C970   C     0.63752   0.03565   0.36917   0.00000  Uiso   1.00
C971   C     0.67723   0.05191   0.36690   0.00000  Uiso   1.00
C972   C     0.64153   0.02492   0.27246   0.00000  Uiso   1.00
C973   C     0.67648   0.05008   0.27089   0.00000  Uiso   1.00
C974   C     0.57269   0.01588   0.31877   0.00000  Uiso   1.00
C975   C     0.61682   0.02726   0.32017   0.00000  Uiso   1.00
C976   C     0.71793   0.10274   0.32028   0.00000  Uiso   1.00
C977   C     0.69176   0.06720   0.31902   0.00000  Uiso   1.00
C978   C     0.62580   0.19092   0.45251   0.00000  Uiso   1.00
C979   C     0.67190   0.18619   0.44954   0.00000  Uiso   1.00
C980   C     0.63050   0.19895   0.19305   0.00000  Uiso   1.00
C981   C     0.60297   0.18849   0.40414   0.00000  Uiso   1.00
C982   C     0.67338   0.18249   0.94502   0.00000  Uiso   1.00
C983   C     0.62904   0.19727   0.94562   0.00000  Uiso   1.00
C984   C     0.67701   0.18474   0.69828   0.00000  Uiso   1.00
C985   C     0.64062   0.03319   0.61726   0.00000  Uiso   1.00
C986   C     0.68185   0.04722   0.61528   0.00000  Uiso   1.00
C987   C     0.63964   0.02826   0.52143   0.00000  Uiso   1.00
C988   C     0.67121   0.05615   0.52079   0.00000  Uiso   1.00
C989   C     0.57211   0.01424   0.56816   0.00000  Uiso   1.00
C990   C     0.61755   0.02511   0.56884   0.00000  Uiso   1.00
C991   C     0.71826   0.10057   0.57095   0.00000  Uiso   1.00
C992   C     0.69428   0.06455   0.56789   0.00000  Uiso   1.00
C993   C     0.64628   0.03111   0.86610   0.00000  Uiso   1.00
C994   C     0.68746   0.04315   0.86273   0.00000  Uiso   1.00
C995   C     0.64212   0.03145   0.76892   0.00000  Uiso   1.00
C996   C     0.67664   0.05656   0.76612   0.00000  Uiso   1.00
C997   C     0.57681   0.01663   0.81813   0.00000  Uiso   1.00
C998   C     0.62142   0.02897   0.81800   0.00000  Uiso   1.00
C999   C     0.72263   0.09963   0.81798   0.00000  Uiso   1.00
C1000  C     0.69956   0.06199   0.81314   0.00000  Uiso   1.00
C1001  C     0.60820   0.19444   0.65095   0.00000  Uiso   1.00
C1002  C     0.63089   0.19217   0.69982   0.00000  Uiso   1.00
C1003  C     0.60818   0.19802   0.89466   0.00000  Uiso   1.00
C1004  C     0.64001   0.36094   0.27155   0.00000  Uiso   1.00
C1005  C     0.69584   0.39733   0.06789   0.00000  Uiso   1.00
C1006  C     0.68405   0.38085   0.11857   0.00000  Uiso   1.00
C1007  C     0.64280   0.36581   0.12143   0.00000  Uiso   1.00
C1008  C     0.63968   0.36701   0.36668   0.00000  Uiso   1.00
C1009  C     0.57142   0.22111   0.14276   0.00000  Uiso   1.00
C1010  C     0.56098   0.21410   0.49444   0.00000  Uiso   1.00
C1011  C     0.52386   0.26619   0.19360   0.00000  Uiso   1.00
C1012  C     0.55055   0.23140   0.19105   0.00000  Uiso   1.00
C1013  C     0.56356   0.21119   0.23622   0.00000  Uiso   1.00
C1014  C     0.57479   0.34907   0.07005   0.00000  Uiso   1.00
C1015  C     0.62148   0.35410   0.07186   0.00000  Uiso   1.00
C1016  C     0.64353   0.35691   0.02392   0.00000  Uiso   1.00
C1017  C     0.56989   0.21473   0.39832   0.00000  Uiso   1.00
C1018  C     0.68224   0.38112   0.36568   0.00000  Uiso   1.00
C1019  C     0.52856   0.26764   0.44381   0.00000  Uiso   1.00
C1020  C     0.55047   0.23027   0.44431   0.00000  Uiso   1.00
C1021  C     0.67466   0.38584   0.01887   0.00000  Uiso   1.00
C1022  C     0.57307   0.35137   0.31982   0.00000  Uiso   1.00
C1023  C     0.61774   0.35989   0.31919   0.00000  Uiso   1.00
C1024  C     0.67622   0.38668   0.26747   0.00000  Uiso   1.00
C1025  C     0.69514   0.39887   0.31871   0.00000  Uiso   1.00
C1026  C     0.60661   0.20071   0.24056   0.00000  Uiso   1.00
C1027  C     0.60382   0.20444   0.49888   0.00000  Uiso   1.00
C1028  C     0.60738   0.20003   0.14455   0.00000  Uiso   1.00
C1029  C     0.64003   0.36721   0.61976   0.00000  Uiso   1.00
C1030  C     0.56409   0.21590   0.98609   0.00000  Uiso   1.00
C1031  C     0.67302   0.38718   0.51971   0.00000  Uiso   1.00
C1032  C     0.67737   0.38406   0.77158   0.00000  Uiso   1.00
C1033  C     0.64213   0.35804   0.52258   0.00000  Uiso   1.00
C1034  C     0.68685   0.37966   0.86524   0.00000  Uiso   1.00
C1035  C     0.57968   0.22512   0.64753   0.00000  Uiso   1.00
C1036  C     0.64489   0.36693   0.86959   0.00000  Uiso   1.00
C1037  C     0.53083   0.27255   0.69499   0.00000  Uiso   1.00
C1038  C     0.55966   0.23833   0.69727   0.00000  Uiso   1.00
C1039  C     0.56913   0.21971   0.74411   0.00000  Uiso   1.00
C1040  C     0.57323   0.35010   0.57088   0.00000  Uiso   1.00
C1041  C     0.61865   0.35764   0.57099   0.00000  Uiso   1.00
C1042  C     0.67875   0.38356   0.61708   0.00000  Uiso   1.00
C1043  C     0.57533   0.22218   0.89215   0.00000  Uiso   1.00
C1044  C     0.52544   0.26750   0.94216   0.00000  Uiso   1.00
C1045  C     0.55078   0.23271   0.93838   0.00000  Uiso   1.00
C1046  C     0.64354   0.35814   0.77711   0.00000  Uiso   1.00
C1047  C     0.57536   0.35022   0.82400   0.00000  Uiso   1.00
C1048  C     0.62109   0.35601   0.82570   0.00000  Uiso   1.00
C1049  C     0.60944   0.20331   0.74589   0.00000  Uiso   1.00
C1050  C     0.69732   0.39752   0.81747   0.00000  Uiso   1.00
C1051  C     0.60602   0.20511   0.99217   0.00000  Uiso   1.00
C1052  C     0.60949   0.53022   0.14686   0.00000  Uiso   1.00
C1053  C     0.57783   0.55782   0.14674   0.00000  Uiso   1.00
C1054  C     0.67454   0.51334   0.19536   0.00000  Uiso   1.00
C1055  C     0.63021   0.52405   0.19455   0.00000  Uiso   1.00
C1056  C     0.55859   0.56993   0.19319   0.00000  Uiso   1.00
C1057  C     0.60877   0.52980   0.24233   0.00000  Uiso   1.00
C1058  C     0.56853   0.54796   0.23892   0.00000  Uiso   1.00
C1059  C     0.72139   0.43283   0.07035   0.00000  Uiso   1.00
C1060  C     0.72014   0.43358   0.32042   0.00000  Uiso   1.00
C1061  C     0.60937   0.53290   0.39852   0.00000  Uiso   1.00
C1062  C     0.57632   0.55765   0.39611   0.00000  Uiso   1.00
C1063  C     0.67549   0.52152   0.44759   0.00000  Uiso   1.00
C1064  C     0.63003   0.53081   0.44783   0.00000  Uiso   1.00
C1065  C     0.55101   0.56447   0.44374   0.00000  Uiso   1.00
C1066  C     0.60540   0.53252   0.49655   0.00000  Uiso   1.00
C1067  C     0.56338   0.54592   0.49202   0.00000  Uiso   1.00
C1068  C     0.56413   0.54418   0.99354   0.00000  Uiso   1.00
C1069  C     0.60986   0.53201   0.64915   0.00000  Uiso   1.00
C1070  C     0.57303   0.55391   0.64498   0.00000  Uiso   1.00
C1071  C     0.67630   0.52117   0.69790   0.00000  Uiso   1.00
C1072  C     0.63173   0.53348   0.69732   0.00000  Uiso   1.00
C1073  C     0.55290   0.56599   0.69192   0.00000  Uiso   1.00
C1074  C     0.60886   0.54008   0.74663   0.00000  Uiso   1.00
C1075  C     0.56692   0.55101   0.74270   0.00000  Uiso   1.00
C1076  C     0.71831   0.43638   0.56957   0.00000  Uiso   1.00
C1077  C     0.72259   0.43576   0.82044   0.00000  Uiso   1.00
C1078  C     0.60558   0.52607   0.89950   0.00000  Uiso   1.00
C1079  C     0.57097   0.55065   0.89824   0.00000  Uiso   1.00
C1080  C     0.67496   0.51640   0.94958   0.00000  Uiso   1.00
C1081  C     0.62989   0.52672   0.94843   0.00000  Uiso   1.00
C1082  C     0.55069   0.56130   0.94424   0.00000  Uiso   1.00
C1083  C     0.60662   0.53252   0.99781   0.00000  Uiso   1.00
C1084  C     0.69114   0.40034   0.56859   0.00000  Uiso   1.00
C1085  C     0.52799   0.59891   0.94652   0.00000  Uiso   1.00
C1086  C     0.64042   0.70626   0.12110   0.00000  Uiso   1.00
C1087  C     0.68210   0.71487   0.11795   0.00000  Uiso   1.00
C1088  C     0.64285   0.69345   0.02408   0.00000  Uiso   1.00
C1089  C     0.67753   0.71651   0.02073   0.00000  Uiso   1.00
C1090  C     0.57393   0.68363   0.07182   0.00000  Uiso   1.00
C1091  C     0.61915   0.69711   0.07263   0.00000  Uiso   1.00
C1092  C     0.72147   0.76639   0.07065   0.00000  Uiso   1.00
C1093  C     0.69569   0.73151   0.07002   0.00000  Uiso   1.00
C1094  C     0.64002   0.70495   0.37208   0.00000  Uiso   1.00
C1095  C     0.68186   0.71642   0.36622   0.00000  Uiso   1.00
C1096  C     0.64152   0.69351   0.27528   0.00000  Uiso   1.00
C1097  C     0.67240   0.72064   0.26845   0.00000  Uiso   1.00
C1098  C     0.57442   0.68111   0.32257   0.00000  Uiso   1.00
C1099  C     0.62019   0.69146   0.32435   0.00000  Uiso   1.00
C1100  C     0.72216   0.76803   0.31917   0.00000  Uiso   1.00
C1101  C     0.69366   0.73373   0.31751   0.00000  Uiso   1.00
C1102  C     0.52959   0.60244   0.19422   0.00000  Uiso   1.00
C1103  C     0.52724   0.60134   0.44669   0.00000  Uiso   1.00
C1104  C     0.63872   0.70871   0.62206   0.00000  Uiso   1.00
C1105  C     0.67946   0.72558   0.62095   0.00000  Uiso   1.00
C1106  C     0.63971   0.69754   0.52484   0.00000  Uiso   1.00
C1107  C     0.67483   0.72271   0.52307   0.00000  Uiso   1.00
C1108  C     0.57316   0.68534   0.57469   0.00000  Uiso   1.00
C1109  C     0.61697   0.69911   0.57501   0.00000  Uiso   1.00
C1110  C     0.71978   0.77264   0.56821   0.00000  Uiso   1.00
C1111  C     0.69204   0.73873   0.57090   0.00000  Uiso   1.00
C1112  C     0.64617   0.69760   0.86576   0.00000  Uiso   1.00
C1113  C     0.68560   0.71437   0.85951   0.00000  Uiso   1.00
C1114  C     0.64015   0.69936   0.77051   0.00000  Uiso   1.00
C1115  C     0.67005   0.72817   0.76721   0.00000  Uiso   1.00
C1116  C     0.57393   0.68418   0.82141   0.00000  Uiso   1.00
C1117  C     0.62068   0.69224   0.82112   0.00000  Uiso   1.00
C1118  C     0.72043   0.77126   0.81696   0.00000  Uiso   1.00
C1119  C     0.69486   0.73576   0.81335   0.00000  Uiso   1.00
C1120  C     0.52671   0.60206   0.69406   0.00000  Uiso   1.00
C1121  C     0.61410   0.86585   0.15107   0.00000  Uiso   1.00
C1122  C     0.58049   0.89216   0.14649   0.00000  Uiso   1.00
C1123  C     0.67750   0.85137   0.20050   0.00000  Uiso   1.00
C1124  C     0.63327   0.86211   0.19900   0.00000  Uiso   1.00
C1125  C     0.52813   0.93347   0.19361   0.00000  Uiso   1.00
C1126  C     0.55680   0.90022   0.19422   0.00000  Uiso   1.00
C1127  C     0.60652   0.86270   0.24534   0.00000  Uiso   1.00
C1128  C     0.56663   0.87925   0.24205   0.00000  Uiso   1.00
C1129  C     0.61015   0.86406   0.39587   0.00000  Uiso   1.00
C1130  C     0.57526   0.88768   0.39152   0.00000  Uiso   1.00
C1131  C     0.67797   0.85233   0.44575   0.00000  Uiso   1.00
C1132  C     0.63195   0.86470   0.44469   0.00000  Uiso   1.00
C1133  C     0.52592   0.93405   0.43881   0.00000  Uiso   1.00
C1134  C     0.55364   0.89993   0.43701   0.00000  Uiso   1.00
C1135  C     0.56713   0.88260   0.48569   0.00000  Uiso   1.00
C1136  C     0.60853   0.87115   0.49116   0.00000  Uiso   1.00
C1137  C     0.61008   0.86637   0.64955   0.00000  Uiso   1.00
C1138  C     0.57570   0.89045   0.64474   0.00000  Uiso   1.00
C1139  C     0.67900   0.85546   0.69737   0.00000  Uiso   1.00
C1140  C     0.63491   0.86838   0.69744   0.00000  Uiso   1.00
C1141  C     0.52872   0.93495   0.69421   0.00000  Uiso   1.00
C1142  C     0.55950   0.90418   0.69424   0.00000  Uiso   1.00
C1143  C     0.61362   0.87743   0.74648   0.00000  Uiso   1.00
C1144  C     0.57161   0.88723   0.74262   0.00000  Uiso   1.00
C1145  C     0.60807   0.86153   0.89730   0.00000  Uiso   1.00
C1146  C     0.57277   0.88622   0.89084   0.00000  Uiso   1.00
C1147  C     0.67663   0.85284   0.94517   0.00000  Uiso   1.00
C1148  C     0.63175   0.86260   0.94503   0.00000  Uiso   1.00
C1149  C     0.52729   0.93520   0.93989   0.00000  Uiso   1.00
C1150  C     0.55211   0.90047   0.93901   0.00000  Uiso   1.00
C1151  C     0.56650   0.88506   0.98635   0.00000  Uiso   1.00
C1152  C     0.60903   0.87361   0.99040   0.00000  Uiso   1.00
C1153  C     0.89379   0.14068   0.02099   0.00000  Uiso   1.00
C1154  C     0.92329   0.11092   0.01749   0.00000  Uiso   1.00
C1155  C     0.82280   0.14663   0.07256   0.00000  Uiso   1.00
C1156  C     0.86969   0.13811   0.07125   0.00000  Uiso   1.00
C1157  C     0.97075   0.06494   0.07209   0.00000  Uiso   1.00
C1158  C     0.94381   0.09971   0.06691   0.00000  Uiso   1.00
C1159  C     0.89382   0.13418   0.11632   0.00000  Uiso   1.00
C1160  C     0.93541   0.11934   0.11457   0.00000  Uiso   1.00
C1161  C     0.88663   0.13527   0.27401   0.00000  Uiso   1.00
C1162  C     0.92251   0.11118   0.26917   0.00000  Uiso   1.00
C1163  C     0.82041   0.14905   0.32345   0.00000  Uiso   1.00
C1164  C     0.86581   0.13758   0.32423   0.00000  Uiso   1.00
C1165  C     0.97113   0.06501   0.31834   0.00000  Uiso   1.00
C1166  C     0.94189   0.09832   0.31517   0.00000  Uiso   1.00
C1167  C     0.88777   0.12870   0.36933   0.00000  Uiso   1.00
C1168  C     0.92905   0.11566   0.36413   0.00000  Uiso   1.00
C1169  C     0.89105   0.13626   0.51900   0.00000  Uiso   1.00
C1170  C     0.92845   0.11395   0.51938   0.00000  Uiso   1.00
C1171  C     0.82351   0.14778   0.57007   0.00000  Uiso   1.00
C1172  C     0.86864   0.13574   0.56810   0.00000  Uiso   1.00
C1173  C     0.97662   0.06937   0.57065   0.00000  Uiso   1.00
C1174  C     0.94806   0.10099   0.56868   0.00000  Uiso   1.00
C1175  C     0.89007   0.13055   0.61495   0.00000  Uiso   1.00
C1176  C     0.93282   0.11892   0.61440   0.00000  Uiso   1.00
C1177  C     0.88928   0.13192   0.77230   0.00000  Uiso   1.00
C1178  C     0.92445   0.10976   0.76981   0.00000  Uiso   1.00
C1179  C     0.82322   0.14796   0.82238   0.00000  Uiso   1.00
C1180  C     0.86884   0.13747   0.82102   0.00000  Uiso   1.00
C1181  C     0.97433   0.06667   0.81985   0.00000  Uiso   1.00
C1182  C     0.94757   0.10198   0.81769   0.00000  Uiso   1.00
C1183  C     0.89478   0.13589   0.86828   0.00000  Uiso   1.00
C1184  C     0.93571   0.12155   0.86420   0.00000  Uiso   1.00
C1185  C     0.81710   0.28627   0.49015   0.00000  Uiso   1.00
C1186  C     0.97407   0.39871   0.31980   0.00000  Uiso   1.00
C1187  C     0.86050   0.29075   0.24340   0.00000  Uiso   1.00
C1188  C     0.81777   0.28025   0.24173   0.00000  Uiso   1.00
C1189  C     0.85839   0.30074   0.14725   0.00000  Uiso   1.00
C1190  C     0.82554   0.27341   0.14394   0.00000  Uiso   1.00
C1191  C     0.92529   0.31436   0.19429   0.00000  Uiso   1.00
C1192  C     0.88143   0.30191   0.19403   0.00000  Uiso   1.00
C1193  C     0.77644   0.23184   0.19715   0.00000  Uiso   1.00
C1194  C     0.80331   0.26557   0.19297   0.00000  Uiso   1.00
C1195  C     0.85664   0.30672   0.39654   0.00000  Uiso   1.00
C1196  C     0.82047   0.28285   0.39505   0.00000  Uiso   1.00
C1197  C     0.92658   0.31277   0.44604   0.00000  Uiso   1.00
C1198  C     0.88084   0.30726   0.44526   0.00000  Uiso   1.00
C1199  C     0.77651   0.23587   0.44372   0.00000  Uiso   1.00
C1200  C     0.80329   0.26974   0.44153   0.00000  Uiso   1.00
C1201  C     0.85961   0.29909   0.49349   0.00000  Uiso   1.00
C1202  C     0.97091   0.39847   0.07048   0.00000  Uiso   1.00
C1203  C     0.85418   0.30304   0.73904   0.00000  Uiso   1.00
C1204  C     0.81407   0.28667   0.73577   0.00000  Uiso   1.00
C1205  C     0.85876   0.30238   0.64216   0.00000  Uiso   1.00
C1206  C     0.82304   0.27699   0.64108   0.00000  Uiso   1.00
C1207  C     0.92569   0.31527   0.69339   0.00000  Uiso   1.00
C1208  C     0.87942   0.30452   0.69100   0.00000  Uiso   1.00
C1209  C     0.77632   0.23255   0.69597   0.00000  Uiso   1.00
C1210  C     0.80515   0.26662   0.68959   0.00000  Uiso   1.00
C1211  C     0.85294   0.30904   0.90249   0.00000  Uiso   1.00
C1212  C     0.82403   0.28047   0.89816   0.00000  Uiso   1.00
C1213  C     0.92259   0.31878   0.94696   0.00000  Uiso   1.00
C1214  C     0.87692   0.30952   0.94928   0.00000  Uiso   1.00
C1215  C     0.77589   0.23219   0.94425   0.00000  Uiso   1.00
C1216  C     0.80018   0.26841   0.94346   0.00000  Uiso   1.00
C1217  C     0.81273   0.28410   0.99356   0.00000  Uiso   1.00
C1218  C     0.85381   0.30029   0.99687   0.00000  Uiso   1.00
C1219  C     0.97003   0.39822   0.81660   0.00000  Uiso   1.00
C1220  C     0.97395   0.39720   0.56799   0.00000  Uiso   1.00
C1221  C     0.94432   0.43227   0.31952   0.00000  Uiso   1.00
C1222  C     0.92946   0.44671   0.36906   0.00000  Uiso   1.00
C1223  C     0.77649   0.56592   0.44242   0.00000  Uiso   1.00
C1224  C     0.89524   0.47451   0.02510   0.00000  Uiso   1.00
C1225  C     0.92810   0.45023   0.02146   0.00000  Uiso   1.00
C1226  C     0.82780   0.48452   0.07164   0.00000  Uiso   1.00
C1227  C     0.87231   0.47530   0.07256   0.00000  Uiso   1.00
C1228  C     0.94533   0.43321   0.06949   0.00000  Uiso   1.00
C1229  C     0.89325   0.46476   0.12193   0.00000  Uiso   1.00
C1230  C     0.93254   0.44977   0.11751   0.00000  Uiso   1.00
C1231  C     0.77404   0.56549   0.19231   0.00000  Uiso   1.00
C1232  C     0.88857   0.46037   0.37005   0.00000  Uiso   1.00
C1233  C     0.89034   0.47013   0.27161   0.00000  Uiso   1.00
C1234  C     0.92308   0.44359   0.27025   0.00000  Uiso   1.00
C1235  C     0.82348   0.48521   0.32174   0.00000  Uiso   1.00
C1236  C     0.86819   0.47285   0.32146   0.00000  Uiso   1.00
C1237  C     0.94703   0.43517   0.81533   0.00000  Uiso   1.00
C1238  C     0.89457   0.46997   0.86821   0.00000  Uiso   1.00
C1239  C     0.89398   0.47183   0.52511   0.00000  Uiso   1.00
C1240  C     0.92484   0.44379   0.52135   0.00000  Uiso   1.00
C1241  C     0.82357   0.48205   0.57148   0.00000  Uiso   1.00
C1242  C     0.86991   0.47249   0.57380   0.00000  Uiso   1.00
C1243  C     0.94516   0.42990   0.56784   0.00000  Uiso   1.00
C1244  C     0.89220   0.46219   0.62075   0.00000  Uiso   1.00
C1245  C     0.77354   0.56840   0.94731   0.00000  Uiso   1.00
C1246  C     0.93504   0.44846   0.61501   0.00000  Uiso   1.00
C1247  C     0.77570   0.56811   0.69446   0.00000  Uiso   1.00
C1248  C     0.93594   0.45550   0.86235   0.00000  Uiso   1.00
C1249  C     0.89116   0.47232   0.77273   0.00000  Uiso   1.00
C1250  C     0.92043   0.44206   0.77092   0.00000  Uiso   1.00
C1251  C     0.82472   0.48856   0.82088   0.00000  Uiso   1.00
C1252  C     0.87061   0.47824   0.82155   0.00000  Uiso   1.00
C1253  C     0.86318   0.63443   0.39941   0.00000  Uiso   1.00
C1254  C     0.85362   0.64206   0.15352   0.00000  Uiso   1.00
C1255  C     0.85888   0.62318   0.24640   0.00000  Uiso   1.00
C1256  C     0.82051   0.61640   0.14745   0.00000  Uiso   1.00
C1257  C     0.81791   0.61886   0.49184   0.00000  Uiso   1.00
C1258  C     0.92335   0.65202   0.19862   0.00000  Uiso   1.00
C1259  C     0.87774   0.63897   0.20061   0.00000  Uiso   1.00
C1260  C     0.82765   0.60950   0.39539   0.00000  Uiso   1.00
C1261  C     0.92185   0.78039   0.02147   0.00000  Uiso   1.00
C1262  C     0.81615   0.61066   0.24416   0.00000  Uiso   1.00
C1263  C     0.97114   0.73589   0.07018   0.00000  Uiso   1.00
C1264  C     0.94603   0.77235   0.06931   0.00000  Uiso   1.00
C1265  C     0.93547   0.79213   0.11591   0.00000  Uiso   1.00
C1266  C     0.92790   0.64557   0.44968   0.00000  Uiso   1.00
C1267  C     0.88297   0.63631   0.44977   0.00000  Uiso   1.00
C1268  C     0.92329   0.78086   0.27092   0.00000  Uiso   1.00
C1269  C     0.97098   0.73450   0.32261   0.00000  Uiso   1.00
C1270  C     0.94494   0.76938   0.31823   0.00000  Uiso   1.00
C1271  C     0.93332   0.78897   0.36534   0.00000  Uiso   1.00
C1272  C     0.86041   0.62826   0.49659   0.00000  Uiso   1.00
C1273  C     0.80100   0.60057   0.19359   0.00000  Uiso   1.00
C1274  C     0.80494   0.60066   0.44193   0.00000  Uiso   1.00
C1275  C     0.85406   0.64327   0.90312   0.00000  Uiso   1.00
C1276  C     0.81872   0.61928   0.89937   0.00000  Uiso   1.00
C1277  C     0.85782   0.62968   0.99825   0.00000  Uiso   1.00
C1278  C     0.92633   0.64942   0.69832   0.00000  Uiso   1.00
C1279  C     0.88170   0.63786   0.69690   0.00000  Uiso   1.00
C1280  C     0.92815   0.77771   0.51997   0.00000  Uiso   1.00
C1281  C     0.82590   0.61197   0.64620   0.00000  Uiso   1.00
C1282  C     0.81245   0.62486   0.73977   0.00000  Uiso   1.00
C1283  C     0.97347   0.73230   0.57295   0.00000  Uiso   1.00
C1284  C     0.94802   0.76622   0.57071   0.00000  Uiso   1.00
C1285  C     0.86000   0.63726   0.64796   0.00000  Uiso   1.00
C1286  C     0.93430   0.78575   0.61648   0.00000  Uiso   1.00
C1287  C     0.92374   0.65093   0.94883   0.00000  Uiso   1.00
C1288  C     0.87672   0.64097   0.95064   0.00000  Uiso   1.00
C1289  C     0.92762   0.77824   0.77278   0.00000  Uiso   1.00
C1290  C     0.85593   0.63575   0.74498   0.00000  Uiso   1.00
C1291  C     0.97837   0.73293   0.82025   0.00000  Uiso   1.00
C1292  C     0.94970   0.76749   0.81878   0.00000  Uiso   1.00
C1293  C     0.93739   0.78420   0.86704   0.00000  Uiso   1.00
C1294  C     0.81501   0.61973   0.99639   0.00000  Uiso   1.00
C1295  C     0.80226   0.60425   0.69380   0.00000  Uiso   1.00
C1296  C     0.79945   0.60477   0.94703   0.00000  Uiso   1.00
C1297  C     0.89249   0.79740   0.61933   0.00000  Uiso   1.00
C1298  C     0.89501   0.79765   0.87093   0.00000  Uiso   1.00
C1299  C     0.87156   0.81161   0.31915   0.00000  Uiso   1.00
C1300  C     0.89214   0.80334   0.36823   0.00000  Uiso   1.00
C1301  C     0.85817   0.96419   0.24757   0.00000  Uiso   1.00
C1302  C     0.81696   0.95078   0.24340   0.00000  Uiso   1.00
C1303  C     0.85479   0.97704   0.15169   0.00000  Uiso   1.00
C1304  C     0.82148   0.95094   0.14636   0.00000  Uiso   1.00
C1305  C     0.92550   0.98107   0.19618   0.00000  Uiso   1.00
C1306  C     0.87919   0.97679   0.19947   0.00000  Uiso   1.00
C1307  C     0.78004   0.90024   0.19511   0.00000  Uiso   1.00
C1308  C     0.80434   0.93606   0.19359   0.00000  Uiso   1.00
C1309  C     0.85907   0.97539   0.39807   0.00000  Uiso   1.00
C1310  C     0.82412   0.95047   0.39474   0.00000  Uiso   1.00
C1311  C     0.92663   0.98465   0.44601   0.00000  Uiso   1.00
C1312  C     0.88144   0.97667   0.44492   0.00000  Uiso   1.00
C1313  C     0.77936   0.90212   0.44501   0.00000  Uiso   1.00
C1314  C     0.80190   0.93997   0.44192   0.00000  Uiso   1.00
C1315  C     0.86907   0.80993   0.07187   0.00000  Uiso   1.00
C1316  C     0.85842   0.96830   0.49171   0.00000  Uiso   1.00
C1317  C     0.82576   0.81827   0.31945   0.00000  Uiso   1.00
C1318  C     0.82494   0.81615   0.06924   0.00000  Uiso   1.00
C1319  C     0.81571   0.95703   0.48846   0.00000  Uiso   1.00
C1320  C     0.88955   0.80692   0.02284   0.00000  Uiso   1.00
C1321  C     0.89179   0.80740   0.27084   0.00000  Uiso   1.00
C1322  C     0.89161   0.80129   0.12050   0.00000  Uiso   1.00
C1323  C     0.82503   0.81655   0.82322   0.00000  Uiso   1.00
C1324  C     0.82508   0.81364   0.57267   0.00000  Uiso   1.00
C1325  C     0.87098   0.80586   0.82407   0.00000  Uiso   1.00
C1326  C     0.86554   0.96385   0.74228   0.00000  Uiso   1.00
C1327  C     0.82405   0.95183   0.74043   0.00000  Uiso   1.00
C1328  C     0.85981   0.97925   0.64979   0.00000  Uiso   1.00
C1329  C     0.82693   0.95185   0.64380   0.00000  Uiso   1.00
C1330  C     0.92792   0.98569   0.69608   0.00000  Uiso   1.00
C1331  C     0.88496   0.97631   0.69704   0.00000  Uiso   1.00
C1332  C     0.78407   0.90014   0.69213   0.00000  Uiso   1.00
C1333  C     0.80830   0.93690   0.69193   0.00000  Uiso   1.00
C1334  C     0.86052   0.97235   0.89971   0.00000  Uiso   1.00
C1335  C     0.82724   0.94553   0.89736   0.00000  Uiso   1.00
C1336  C     0.92621   0.98565   0.94771   0.00000  Uiso   1.00
C1337  C     0.88292   0.97314   0.94855   0.00000  Uiso   1.00
C1338  C     0.77782   0.90066   0.94631   0.00000  Uiso   1.00
C1339  C     0.80253   0.93619   0.94323   0.00000  Uiso   1.00
C1340  C     0.81651   0.95185   0.99208   0.00000  Uiso   1.00
C1341  C     0.89333   0.80417   0.77654   0.00000  Uiso   1.00
C1342  C     0.87089   0.80299   0.57091   0.00000  Uiso   1.00
C1343  C     0.86075   0.96237   0.99670   0.00000  Uiso   1.00
C1344  C     0.89412   0.80334   0.52156   0.00000  Uiso   1.00
O1345  O     0.05588   0.01346   0.27469   0.00000  Uiso   1.00
O1346  O     0.23108   0.11474   0.11648   0.00000  Uiso   1.00
O1347  O     0.19321   0.17801   0.14803   0.00000  Uiso   1.00
O1348  O     0.05604   0.01243   0.11978   0.00000  Uiso   1.00
O1349  O     0.23268   0.11810   0.27349   0.00000  Uiso   1.00
O1350  O     0.23031   0.11461   0.02130   0.00000  Uiso   1.00
O1351  O     0.05816   0.01514   0.02411   0.00000  Uiso   1.00
O1352  O     0.19703   0.17955   0.24478   0.00000  Uiso   1.00
O1353  O     0.05663   0.01262   0.36980   0.00000  Uiso   1.00
O1354  O     0.23345   0.11631   0.36727   0.00000  Uiso   1.00
O1355  O     0.19777   0.17785   0.39671   0.00000  Uiso   1.00
O1356  O     0.19769   0.17549   0.49202   0.00000  Uiso   1.00
O1357  O     0.05746   0.01327   0.77487   0.00000  Uiso   1.00
O1358  O     0.23402   0.11668   0.61491   0.00000  Uiso   1.00
O1359  O     0.19410   0.17608   0.64561   0.00000  Uiso   1.00
O1360  O     0.05729   0.01576   0.61987   0.00000  Uiso   1.00
O1361  O     0.23043   0.11750   0.76917   0.00000  Uiso   1.00
O1362  O     0.23446   0.11412   0.51944   0.00000  Uiso   1.00
O1363  O     0.05691   0.01554   0.52427   0.00000  Uiso   1.00
O1364  O     0.19527   0.18059   0.74084   0.00000  Uiso   1.00
O1365  O     0.05612   0.01301   0.87072   0.00000  Uiso   1.00
O1366  O     0.23043   0.11548   0.86669   0.00000  Uiso   1.00
O1367  O     0.19344   0.17952   0.89753   0.00000  Uiso   1.00
O1368  O     0.19300   0.18113   0.99389   0.00000  Uiso   1.00
O1369  O     0.01966   0.28050   0.39677   0.00000  Uiso   1.00
O1370  O     0.05728   0.34643   0.26954   0.00000  Uiso   1.00
O1371  O     0.05594   0.34687   0.02373   0.00000  Uiso   1.00
O1372  O     0.05497   0.34667   0.11968   0.00000  Uiso   1.00
O1373  O     0.05835   0.34429   0.36364   0.00000  Uiso   1.00
O1374  O     0.02408   0.28057   0.49083   0.00000  Uiso   1.00
O1375  O     0.01908   0.28338   0.24088   0.00000  Uiso   1.00
O1376  O     0.01936   0.28180   0.14405   0.00000  Uiso   1.00
O1377  O     0.01704   0.28450   0.89936   0.00000  Uiso   1.00
O1378  O     0.05442   0.34484   0.77266   0.00000  Uiso   1.00
O1379  O     0.05792   0.34449   0.52377   0.00000  Uiso   1.00
O1380  O     0.05651   0.34543   0.61753   0.00000  Uiso   1.00
O1381  O     0.05432   0.34691   0.86785   0.00000  Uiso   1.00
O1382  O     0.01466   0.28255   0.99155   0.00000  Uiso   1.00
O1383  O     0.01960   0.28143   0.74320   0.00000  Uiso   1.00
O1384  O     0.02124   0.28123   0.64730   0.00000  Uiso   1.00
O1385  O     0.19326   0.51868   0.14576   0.00000  Uiso   1.00
O1386  O     0.23360   0.45332   0.26678   0.00000  Uiso   1.00
O1387  O     0.19304   0.51409   0.39478   0.00000  Uiso   1.00
O1388  O     0.22650   0.45086   0.02050   0.00000  Uiso   1.00
O1389  O     0.22661   0.45276   0.11523   0.00000  Uiso   1.00
O1390  O     0.19374   0.51470   0.23933   0.00000  Uiso   1.00
O1391  O     0.22597   0.45164   0.36318   0.00000  Uiso   1.00
O1392  O     0.19205   0.50963   0.49211   0.00000  Uiso   1.00
O1393  O     0.19209   0.50950   0.74194   0.00000  Uiso   1.00
O1394  O     0.23114   0.44721   0.77092   0.00000  Uiso   1.00
O1395  O     0.23088   0.44595   0.52128   0.00000  Uiso   1.00
O1396  O     0.22867   0.44793   0.86502   0.00000  Uiso   1.00
O1397  O     0.19077   0.51331   0.89531   0.00000  Uiso   1.00
O1398  O     0.19063   0.51045   0.64757   0.00000  Uiso   1.00
O1399  O     0.22743   0.44743   0.61659   0.00000  Uiso   1.00
O1400  O     0.19105   0.51560   0.99070   0.00000  Uiso   1.00
O1401  O     0.05460   0.68048   0.27560   0.00000  Uiso   1.00
O1402  O     0.22934   0.78242   0.26959   0.00000  Uiso   1.00
O1403  O     0.23246   0.78000   0.36432   0.00000  Uiso   1.00
O1404  O     0.05429   0.67946   0.36891   0.00000  Uiso   1.00
O1405  O     0.22884   0.78103   0.02133   0.00000  Uiso   1.00
O1406  O     0.01705   0.61605   0.49363   0.00000  Uiso   1.00
O1407  O     0.02060   0.61867   0.39734   0.00000  Uiso   1.00
O1408  O     0.02314   0.62246   0.14754   0.00000  Uiso   1.00
O1409  O     0.01741   0.61890   0.24347   0.00000  Uiso   1.00
O1410  O     0.23202   0.77985   0.11765   0.00000  Uiso   1.00
O1411  O     0.05427   0.68579   0.12003   0.00000  Uiso   1.00
O1412  O     0.05668   0.68017   0.02458   0.00000  Uiso   1.00
O1413  O     0.05630   0.67829   0.77434   0.00000  Uiso   1.00
O1414  O     0.23021   0.78111   0.76958   0.00000  Uiso   1.00
O1415  O     0.23060   0.77967   0.86520   0.00000  Uiso   1.00
O1416  O     0.05574   0.67678   0.87038   0.00000  Uiso   1.00
O1417  O     0.05683   0.68079   0.52389   0.00000  Uiso   1.00
O1418  O     0.22996   0.78388   0.52135   0.00000  Uiso   1.00
O1419  O     0.01582   0.61784   0.90041   0.00000  Uiso   1.00
O1420  O     0.02097   0.61544   0.64900   0.00000  Uiso   1.00
O1421  O     0.01875   0.61565   0.74569   0.00000  Uiso   1.00
O1422  O     0.23405   0.78166   0.61758   0.00000  Uiso   1.00
O1423  O     0.05671   0.68028   0.62124   0.00000  Uiso   1.00
O1424  O     0.01793   0.61715   0.99535   0.00000  Uiso   1.00
O1425  O     0.02103   0.95023   0.15058   0.00000  Uiso   1.00
O1426  O     0.19703   0.84450   0.14750   0.00000  Uiso   1.00
O1427  O     0.02268   0.94871   0.24603   0.00000  Uiso   1.00
O1428  O     0.19674   0.84808   0.24290   0.00000  Uiso   1.00
O1429  O     0.01847   0.95219   0.49341   0.00000  Uiso   1.00
O1430  O     0.02107   0.95221   0.39813   0.00000  Uiso   1.00
O1431  O     0.19667   0.84798   0.39690   0.00000  Uiso   1.00
O1432  O     0.19639   0.84724   0.49261   0.00000  Uiso   1.00
O1433  O     0.01974   0.95099   0.64836   0.00000  Uiso   1.00
O1434  O     0.19544   0.84425   0.64611   0.00000  Uiso   1.00
O1435  O     0.02090   0.94883   0.74352   0.00000  Uiso   1.00
O1436  O     0.19718   0.84483   0.74073   0.00000  Uiso   1.00
O1437  O     0.01757   0.94990   0.89915   0.00000  Uiso   1.00
O1438  O     0.19350   0.84320   0.89823   0.00000  Uiso   1.00
O1439  O     0.02316   0.95031   0.99363   0.00000  Uiso   1.00
O1440  O     0.19569   0.84471   0.99424   0.00000  Uiso   1.00
O1441  O     0.48088   0.05121   0.36637   0.00000  Uiso   1.00
O1442  O     0.30594   0.15408   0.27142   0.00000  Uiso   1.00
O1443  O     0.30704   0.15402   0.36623   0.00000  Uiso   1.00
O1444  O     0.47873   0.04926   0.26899   0.00000  Uiso   1.00
O1445  O     0.48058   0.04993   0.01702   0.00000  Uiso   1.00
O1446  O     0.30549   0.15342   0.02406   0.00000  Uiso   1.00
O1447  O     0.48275   0.04998   0.11181   0.00000  Uiso   1.00
O1448  O     0.30638   0.15316   0.11810   0.00000  Uiso   1.00
O1449  O     0.48283   0.05205   0.86662   0.00000  Uiso   1.00
O1450  O     0.30820   0.15583   0.77439   0.00000  Uiso   1.00
O1451  O     0.30621   0.15275   0.86749   0.00000  Uiso   1.00
O1452  O     0.47969   0.04988   0.77258   0.00000  Uiso   1.00
O1453  O     0.47871   0.04738   0.52240   0.00000  Uiso   1.00
O1454  O     0.31104   0.15410   0.52155   0.00000  Uiso   1.00
O1455  O     0.48075   0.04997   0.61626   0.00000  Uiso   1.00
O1456  O     0.30826   0.15473   0.61779   0.00000  Uiso   1.00
O1457  O     0.44627   0.31528   0.39942   0.00000  Uiso   1.00
O1458  O     0.26959   0.21677   0.49197   0.00000  Uiso   1.00
O1459  O     0.48277   0.38354   0.27196   0.00000  Uiso   1.00
O1460  O     0.27324   0.21360   0.39561   0.00000  Uiso   1.00
O1461  O     0.26860   0.21775   0.24157   0.00000  Uiso   1.00
O1462  O     0.44330   0.31997   0.24557   0.00000  Uiso   1.00
O1463  O     0.47594   0.38240   0.36780   0.00000  Uiso   1.00
O1464  O     0.26868   0.21439   0.14699   0.00000  Uiso   1.00
O1465  O     0.44323   0.32308   0.14858   0.00000  Uiso   1.00
O1466  O     0.47883   0.38292   0.02203   0.00000  Uiso   1.00
O1467  O     0.48256   0.38490   0.11891   0.00000  Uiso   1.00
O1468  O     0.44199   0.32095   0.49213   0.00000  Uiso   1.00
O1469  O     0.44310   0.32506   0.89641   0.00000  Uiso   1.00
O1470  O     0.27122   0.21551   0.99140   0.00000  Uiso   1.00
O1471  O     0.27035   0.21405   0.89647   0.00000  Uiso   1.00
O1472  O     0.27017   0.21726   0.74140   0.00000  Uiso   1.00
O1473  O     0.44525   0.32058   0.74232   0.00000  Uiso   1.00
O1474  O     0.48227   0.38653   0.86698   0.00000  Uiso   1.00
O1475  O     0.26925   0.21715   0.64687   0.00000  Uiso   1.00
O1476  O     0.44524   0.32046   0.64835   0.00000  Uiso   1.00
O1477  O     0.48102   0.38432   0.52389   0.00000  Uiso   1.00
O1478  O     0.47634   0.38447   0.61832   0.00000  Uiso   1.00
O1479  O     0.48078   0.38487   0.77331   0.00000  Uiso   1.00
O1480  O     0.44391   0.31935   0.99214   0.00000  Uiso   1.00
O1481  O     0.30353   0.48527   0.36660   0.00000  Uiso   1.00
O1482  O     0.30236   0.48910   0.11458   0.00000  Uiso   1.00
O1483  O     0.26733   0.55278   0.14370   0.00000  Uiso   1.00
O1484  O     0.27091   0.54835   0.39663   0.00000  Uiso   1.00
O1485  O     0.30613   0.49240   0.27112   0.00000  Uiso   1.00
O1486  O     0.26602   0.55522   0.23921   0.00000  Uiso   1.00
O1487  O     0.26577   0.54942   0.49204   0.00000  Uiso   1.00
O1488  O     0.30156   0.48633   0.01785   0.00000  Uiso   1.00
O1489  O     0.30351   0.48670   0.86644   0.00000  Uiso   1.00
O1490  O     0.30136   0.48895   0.61480   0.00000  Uiso   1.00
O1491  O     0.26663   0.54913   0.64477   0.00000  Uiso   1.00
O1492  O     0.26992   0.54843   0.89353   0.00000  Uiso   1.00
O1493  O     0.30392   0.48547   0.77224   0.00000  Uiso   1.00
O1494  O     0.26355   0.54999   0.73922   0.00000  Uiso   1.00
O1495  O     0.26759   0.55125   0.98571   0.00000  Uiso   1.00
O1496  O     0.30186   0.48342   0.51934   0.00000  Uiso   1.00
O1497  O     0.44330   0.65320   0.49290   0.00000  Uiso   1.00
O1498  O     0.48363   0.71724   0.27384   0.00000  Uiso   1.00
O1499  O     0.48013   0.71813   0.36884   0.00000  Uiso   1.00
O1500  O     0.44328   0.65383   0.24718   0.00000  Uiso   1.00
O1501  O     0.44441   0.65564   0.39904   0.00000  Uiso   1.00
O1502  O     0.44454   0.65256   0.15196   0.00000  Uiso   1.00
O1503  O     0.48210   0.71794   0.02460   0.00000  Uiso   1.00
O1504  O     0.48060   0.71831   0.11971   0.00000  Uiso   1.00
O1505  O     0.47380   0.71273   0.77163   0.00000  Uiso   1.00
O1506  O     0.48328   0.71736   0.86641   0.00000  Uiso   1.00
O1507  O     0.44355   0.65456   0.99478   0.00000  Uiso   1.00
O1508  O     0.44235   0.64953   0.74486   0.00000  Uiso   1.00
O1509  O     0.44377   0.65312   0.90026   0.00000  Uiso   1.00
O1510  O     0.44208   0.65441   0.64951   0.00000  Uiso   1.00
O1511  O     0.47702   0.71621   0.52404   0.00000  Uiso   1.00
O1512  O     0.48041   0.71863   0.61808   0.00000  Uiso   1.00
O1513  O     0.44235   0.99050   0.39692   0.00000  Uiso   1.00
O1514  O     0.30647   0.81646   0.36781   0.00000  Uiso   1.00
O1515  O     0.27247   0.87900   0.24049   0.00000  Uiso   1.00
O1516  O     0.30607   0.81246   0.02172   0.00000  Uiso   1.00
O1517  O     0.44431   0.98354   0.23930   0.00000  Uiso   1.00
O1518  O     0.27149   0.87991   0.39748   0.00000  Uiso   1.00
O1519  O     0.27319   0.87953   0.14335   0.00000  Uiso   1.00
O1520  O     0.43991   0.98794   0.14320   0.00000  Uiso   1.00
O1521  O     0.30667   0.81618   0.11674   0.00000  Uiso   1.00
O1522  O     0.44289   0.98581   0.49145   0.00000  Uiso   1.00
O1523  O     0.27154   0.88022   0.49210   0.00000  Uiso   1.00
O1524  O     0.30580   0.81417   0.27271   0.00000  Uiso   1.00
O1525  O     0.44326   0.99055   0.89443   0.00000  Uiso   1.00
O1526  O     0.30517   0.81673   0.86854   0.00000  Uiso   1.00
O1527  O     0.27303   0.87919   0.98962   0.00000  Uiso   1.00
O1528  O     0.27104   0.88153   0.74016   0.00000  Uiso   1.00
O1529  O     0.30454   0.82084   0.52138   0.00000  Uiso   1.00
O1530  O     0.44452   0.98801   0.74086   0.00000  Uiso   1.00
O1531  O     0.26996   0.87842   0.89599   0.00000  Uiso   1.00
O1532  O     0.26891   0.88255   0.64621   0.00000  Uiso   1.00
O1533  O     0.44330   0.98903   0.64510   0.00000  Uiso   1.00
O1534  O     0.30835   0.82190   0.61581   0.00000  Uiso   1.00
O1535  O     0.30747   0.81881   0.77330   0.00000  Uiso   1.00
O1536  O     0.44375   0.98739   0.98941   0.00000  Uiso   1.00
O1537  O     0.55357   0.01482   0.27108   0.00000  Uiso   1.00
O1538  O     0.69239   0.18225   0.49628   0.00000  Uiso   1.00
O1539  O     0.73147   0.11478   0.11723   0.00000  Uiso   1.00
O1540  O     0.69363   0.18096   0.14829   0.00000  Uiso   1.00
O1541  O     0.72421   0.11949   0.27390   0.00000  Uiso   1.00
O1542  O     0.72625   0.11709   0.02312   0.00000  Uiso   1.00
O1543  O     0.55589   0.01390   0.01929   0.00000  Uiso   1.00
O1544  O     0.69440   0.18517   0.24432   0.00000  Uiso   1.00
O1545  O     0.55407   0.01136   0.36609   0.00000  Uiso   1.00
O1546  O     0.72518   0.11948   0.36761   0.00000  Uiso   1.00
O1547  O     0.69020   0.18413   0.40103   0.00000  Uiso   1.00
O1548  O     0.55536   0.00999   0.11555   0.00000  Uiso   1.00
O1549  O     0.55679   0.01685   0.76818   0.00000  Uiso   1.00
O1550  O     0.72508   0.11713   0.61818   0.00000  Uiso   1.00
O1551  O     0.69699   0.18383   0.65006   0.00000  Uiso   1.00
O1552  O     0.55508   0.01030   0.61586   0.00000  Uiso   1.00
O1553  O     0.73439   0.11703   0.77168   0.00000  Uiso   1.00
O1554  O     0.72694   0.11771   0.52309   0.00000  Uiso   1.00
O1555  O     0.55248   0.01352   0.52119   0.00000  Uiso   1.00
O1556  O     0.69478   0.17744   0.74625   0.00000  Uiso   1.00
O1557  O     0.55732   0.01249   0.86513   0.00000  Uiso   1.00
O1558  O     0.72664   0.11517   0.86798   0.00000  Uiso   1.00
O1559  O     0.69183   0.18037   0.89849   0.00000  Uiso   1.00
O1560  O     0.69211   0.17833   0.99384   0.00000  Uiso   1.00
O1561  O     0.52196   0.28500   0.39710   0.00000  Uiso   1.00
O1562  O     0.55642   0.34318   0.27151   0.00000  Uiso   1.00
O1563  O     0.55458   0.34886   0.02200   0.00000  Uiso   1.00
O1564  O     0.55646   0.34296   0.11689   0.00000  Uiso   1.00
O1565  O     0.55417   0.34890   0.36813   0.00000  Uiso   1.00
O1566  O     0.51784   0.28178   0.49177   0.00000  Uiso   1.00
O1567  O     0.51898   0.28194   0.24304   0.00000  Uiso   1.00
O1568  O     0.51393   0.28192   0.14648   0.00000  Uiso   1.00
O1569  O     0.51651   0.28470   0.89568   0.00000  Uiso   1.00
O1570  O     0.55712   0.34901   0.77515   0.00000  Uiso   1.00
O1571  O     0.55590   0.34495   0.52349   0.00000  Uiso   1.00
O1572  O     0.55190   0.35245   0.61649   0.00000  Uiso   1.00
O1573  O     0.55564   0.34760   0.87147   0.00000  Uiso   1.00
O1574  O     0.52118   0.28416   0.99074   0.00000  Uiso   1.00
O1575  O     0.52345   0.28909   0.64701   0.00000  Uiso   1.00
O1576  O     0.52084   0.28813   0.74173   0.00000  Uiso   1.00
O1577  O     0.73027   0.44778   0.11777   0.00000  Uiso   1.00
O1578  O     0.73211   0.44929   0.27158   0.00000  Uiso   1.00
O1579  O     0.69144   0.50888   0.24277   0.00000  Uiso   1.00
O1580  O     0.72629   0.45207   0.36811   0.00000  Uiso   1.00
O1581  O     0.69350   0.51836   0.39719   0.00000  Uiso   1.00
O1582  O     0.73049   0.45003   0.02302   0.00000  Uiso   1.00
O1583  O     0.69628   0.51275   0.14930   0.00000  Uiso   1.00
O1584  O     0.69433   0.51453   0.49306   0.00000  Uiso   1.00
O1585  O     0.72961   0.45246   0.77415   0.00000  Uiso   1.00
O1586  O     0.72925   0.45214   0.86869   0.00000  Uiso   1.00
O1587  O     0.69740   0.51732   0.65145   0.00000  Uiso   1.00
O1588  O     0.69389   0.51353   0.90214   0.00000  Uiso   1.00
O1589  O     0.72900   0.45234   0.52224   0.00000  Uiso   1.00
O1590  O     0.73019   0.44949   0.61668   0.00000  Uiso   1.00
O1591  O     0.69427   0.51530   0.74538   0.00000  Uiso   1.00
O1592  O     0.69325   0.51150   0.99748   0.00000  Uiso   1.00
O1593  O     0.55575   0.68031   0.27447   0.00000  Uiso   1.00
O1594  O     0.73051   0.78472   0.27247   0.00000  Uiso   1.00
O1595  O     0.73204   0.78368   0.36772   0.00000  Uiso   1.00
O1596  O     0.55483   0.68046   0.36919   0.00000  Uiso   1.00
O1597  O     0.72797   0.78556   0.02540   0.00000  Uiso   1.00
O1598  O     0.55400   0.67855   0.02284   0.00000  Uiso   1.00
O1599  O     0.51967   0.61878   0.39897   0.00000  Uiso   1.00
O1600  O     0.52281   0.62035   0.14814   0.00000  Uiso   1.00
O1601  O     0.51821   0.61731   0.24410   0.00000  Uiso   1.00
O1602  O     0.72729   0.78214   0.11771   0.00000  Uiso   1.00
O1603  O     0.55415   0.68289   0.11925   0.00000  Uiso   1.00
O1604  O     0.52071   0.61764   0.49636   0.00000  Uiso   1.00
O1605  O     0.55270   0.68328   0.77436   0.00000  Uiso   1.00
O1606  O     0.72754   0.78774   0.76956   0.00000  Uiso   1.00
O1607  O     0.73199   0.78438   0.86475   0.00000  Uiso   1.00
O1608  O     0.55635   0.67741   0.86977   0.00000  Uiso   1.00
O1609  O     0.73035   0.78831   0.52236   0.00000  Uiso   1.00
O1610  O     0.51922   0.61625   0.89926   0.00000  Uiso   1.00
O1611  O     0.55390   0.68302   0.52577   0.00000  Uiso   1.00
O1612  O     0.51505   0.61652   0.64786   0.00000  Uiso   1.00
O1613  O     0.52167   0.61911   0.74275   0.00000  Uiso   1.00
O1614  O     0.72750   0.78787   0.61604   0.00000  Uiso   1.00
O1615  O     0.55416   0.67794   0.62193   0.00000  Uiso   1.00
O1616  O     0.51819   0.61566   0.99492   0.00000  Uiso   1.00
O1617  O     0.51738   0.94734   0.14691   0.00000  Uiso   1.00
O1618  O     0.69487   0.84772   0.15185   0.00000  Uiso   1.00
O1619  O     0.52031   0.95126   0.24085   0.00000  Uiso   1.00
O1620  O     0.69747   0.84878   0.24748   0.00000  Uiso   1.00
O1621  O     0.51802   0.94942   0.48796   0.00000  Uiso   1.00
O1622  O     0.51401   0.95058   0.39336   0.00000  Uiso   1.00
O1623  O     0.69781   0.84958   0.39857   0.00000  Uiso   1.00
O1624  O     0.69701   0.85155   0.49441   0.00000  Uiso   1.00
O1625  O     0.52041   0.95153   0.98898   0.00000  Uiso   1.00
O1626  O     0.51636   0.94989   0.64586   0.00000  Uiso   1.00
O1627  O     0.69655   0.84881   0.64910   0.00000  Uiso   1.00
O1628  O     0.52279   0.95276   0.74312   0.00000  Uiso   1.00
O1629  O     0.69943   0.85488   0.74289   0.00000  Uiso   1.00
O1630  O     0.51633   0.94971   0.89170   0.00000  Uiso   1.00
O1631  O     0.69645   0.85005   0.89881   0.00000  Uiso   1.00
O1632  O     0.69531   0.84907   0.99356   0.00000  Uiso   1.00
O1633  O     0.98206   0.05126   0.36664   0.00000  Uiso   1.00
O1634  O     0.80229   0.15244   0.27584   0.00000  Uiso   1.00
O1635  O     0.80128   0.15459   0.37184   0.00000  Uiso   1.00
O1636  O     0.97837   0.04709   0.27023   0.00000  Uiso   1.00
O1637  O     0.97928   0.04846   0.02505   0.00000  Uiso   1.00
O1638  O     0.80163   0.15322   0.02538   0.00000  Uiso   1.00
O1639  O     0.97895   0.04861   0.12105   0.00000  Uiso   1.00
O1640  O     0.80551   0.15260   0.12034   0.00000  Uiso   1.00
O1641  O     0.98477   0.05198   0.86727   0.00000  Uiso   1.00
O1642  O     0.80425   0.15162   0.77463   0.00000  Uiso   1.00
O1643  O     0.80384   0.15204   0.87051   0.00000  Uiso   1.00
O1644  O     0.98566   0.05132   0.77298   0.00000  Uiso   1.00
O1645  O     0.98316   0.05284   0.52317   0.00000  Uiso   1.00
O1646  O     0.80371   0.15378   0.52214   0.00000  Uiso   1.00
O1647  O     0.98385   0.05237   0.61983   0.00000  Uiso   1.00
O1648  O     0.80349   0.14952   0.61757   0.00000  Uiso   1.00
O1649  O     0.94391   0.32001   0.39868   0.00000  Uiso   1.00
O1650  O     0.98069   0.38187   0.27350   0.00000  Uiso   1.00
O1651  O     0.76562   0.22026   0.39671   0.00000  Uiso   1.00
O1652  O     0.77094   0.21494   0.24677   0.00000  Uiso   1.00
O1653  O     0.94591   0.31538   0.24122   0.00000  Uiso   1.00
O1654  O     0.98446   0.38262   0.36767   0.00000  Uiso   1.00
O1655  O     0.76602   0.21618   0.14974   0.00000  Uiso   1.00
O1656  O     0.94383   0.31727   0.14542   0.00000  Uiso   1.00
O1657  O     0.98238   0.38618   0.02227   0.00000  Uiso   1.00
O1658  O     0.97888   0.38346   0.11876   0.00000  Uiso   1.00
O1659  O     0.94639   0.31641   0.49204   0.00000  Uiso   1.00
O1660  O     0.77000   0.21956   0.49300   0.00000  Uiso   1.00
O1661  O     0.94133   0.31960   0.89862   0.00000  Uiso   1.00
O1662  O     0.97898   0.38006   0.77047   0.00000  Uiso   1.00
O1663  O     0.76412   0.21875   0.99162   0.00000  Uiso   1.00
O1664  O     0.76872   0.21593   0.89697   0.00000  Uiso   1.00
O1665  O     0.76597   0.21816   0.74276   0.00000  Uiso   1.00
O1666  O     0.94480   0.31717   0.74038   0.00000  Uiso   1.00
O1667  O     0.97949   0.38346   0.86563   0.00000  Uiso   1.00
O1668  O     0.77349   0.21355   0.65024   0.00000  Uiso   1.00
O1669  O     0.94549   0.31517   0.64490   0.00000  Uiso   1.00
O1670  O     0.98209   0.38036   0.52073   0.00000  Uiso   1.00
O1671  O     0.97988   0.38011   0.61597   0.00000  Uiso   1.00
O1672  O     0.94221   0.32159   0.99407   0.00000  Uiso   1.00
O1673  O     0.80268   0.48743   0.36933   0.00000  Uiso   1.00
O1674  O     0.80625   0.48081   0.11664   0.00000  Uiso   1.00
O1675  O     0.77409   0.54536   0.14606   0.00000  Uiso   1.00
O1676  O     0.76928   0.55078   0.39572   0.00000  Uiso   1.00
O1677  O     0.80539   0.49114   0.27370   0.00000  Uiso   1.00
O1678  O     0.80768   0.48884   0.02324   0.00000  Uiso   1.00
O1679  O     0.76327   0.55168   0.24087   0.00000  Uiso   1.00
O1680  O     0.76996   0.54990   0.49154   0.00000  Uiso   1.00
O1681  O     0.76662   0.55111   0.99418   0.00000  Uiso   1.00
O1682  O     0.80569   0.48777   0.86756   0.00000  Uiso   1.00
O1683  O     0.80494   0.48834   0.62001   0.00000  Uiso   1.00
O1684  O     0.76936   0.55167   0.64665   0.00000  Uiso   1.00
O1685  O     0.76824   0.55177   0.89948   0.00000  Uiso   1.00
O1686  O     0.80695   0.49056   0.77320   0.00000  Uiso   1.00
O1687  O     0.77038   0.55102   0.74210   0.00000  Uiso   1.00
O1688  O     0.80554   0.48440   0.52305   0.00000  Uiso   1.00
O1689  O     0.97947   0.71778   0.27620   0.00000  Uiso   1.00
O1690  O     0.98061   0.71815   0.37214   0.00000  Uiso   1.00
O1691  O     0.94476   0.65134   0.49708   0.00000  Uiso   1.00
O1692  O     0.94252   0.65502   0.24610   0.00000  Uiso   1.00
O1693  O     0.94523   0.65305   0.40145   0.00000  Uiso   1.00
O1694  O     0.94366   0.65207   0.15058   0.00000  Uiso   1.00
O1695  O     0.97918   0.71826   0.02331   0.00000  Uiso   1.00
O1696  O     0.97655   0.71911   0.11984   0.00000  Uiso   1.00
O1697  O     0.98250   0.71540   0.77152   0.00000  Uiso   1.00
O1698  O     0.98372   0.71640   0.86865   0.00000  Uiso   1.00
O1699  O     0.94305   0.65400   0.99583   0.00000  Uiso   1.00
O1700  O     0.94355   0.65627   0.74677   0.00000  Uiso   1.00
O1701  O     0.94316   0.65582   0.89844   0.00000  Uiso   1.00
O1702  O     0.94575   0.65206   0.65034   0.00000  Uiso   1.00
O1703  O     0.97954   0.71539   0.52535   0.00000  Uiso   1.00
O1704  O     0.98315   0.71680   0.61893   0.00000  Uiso   1.00
O1705  O     0.94533   0.99020   0.39879   0.00000  Uiso   1.00
O1706  O     0.80613   0.82000   0.36733   0.00000  Uiso   1.00
O1707  O     0.77150   0.88435   0.24402   0.00000  Uiso   1.00
O1708  O     0.80541   0.81989   0.02321   0.00000  Uiso   1.00
O1709  O     0.77379   0.88466   0.39811   0.00000  Uiso   1.00
O1710  O     0.76884   0.88410   0.14715   0.00000  Uiso   1.00
O1711  O     0.94386   0.98631   0.14953   0.00000  Uiso   1.00
O1712  O     0.80441   0.81895   0.11646   0.00000  Uiso   1.00
O1713  O     0.94560   0.99031   0.49493   0.00000  Uiso   1.00
O1714  O     0.80681   0.82109   0.27192   0.00000  Uiso   1.00
O1715  O     0.77234   0.88513   0.49365   0.00000  Uiso   1.00
O1716  O     0.94588   0.98259   0.24309   0.00000  Uiso   1.00
O1717  O     0.94445   0.98986   0.89909   0.00000  Uiso   1.00
O1718  O     0.80675   0.82305   0.87041   0.00000  Uiso   1.00
O1719  O     0.94665   0.98520   0.99385   0.00000  Uiso   1.00
O1720  O     0.77783   0.88268   0.74234   0.00000  Uiso   1.00
O1721  O     0.80735   0.82094   0.52393   0.00000  Uiso   1.00
O1722  O     0.94754   0.98829   0.74395   0.00000  Uiso   1.00
O1723  O     0.77034   0.88521   0.89723   0.00000  Uiso   1.00
O1724  O     0.77400   0.88317   0.64449   0.00000  Uiso   1.00
O1725  O     0.94776   0.98849   0.64998   0.00000  Uiso   1.00
O1726  O     0.80629   0.81988   0.62100   0.00000  Uiso   1.00
O1727  O     0.76947   0.88407   0.99500   0.00000  Uiso   1.00
O1728  O     0.80581   0.81782   0.77409   0.00000  Uiso   1.00
O1729  O     0.01031   0.01750   0.44605   0.00000  Uiso   1.00
O1730  O     0.24057   0.18241   0.06947   0.00000  Uiso   1.00
O1731  O     0.00822   0.01579   0.19629   0.00000  Uiso   1.00
O1732  O     0.24317   0.18383   0.31892   0.00000  Uiso   1.00
O1733  O     0.24093   0.18292   0.81982   0.00000  Uiso   1.00
O1734  O     0.24361   0.18136   0.56824   0.00000  Uiso   1.00
O1735  O     0.01303   0.01637   0.69810   0.00000  Uiso   1.00
O1736  O     0.01090   0.01812   0.94638   0.00000  Uiso   1.00
O1737  O     0.01297   0.34606   0.44487   0.00000  Uiso   1.00
O1738  O     0.00667   0.34749   0.19432   0.00000  Uiso   1.00
O1739  O     0.00717   0.34796   0.69286   0.00000  Uiso   1.00
O1740  O     0.00647   0.35033   0.94483   0.00000  Uiso   1.00
O1741  O     0.23976   0.51855   0.31921   0.00000  Uiso   1.00
O1742  O     0.23816   0.51744   0.06579   0.00000  Uiso   1.00
O1743  O     0.23564   0.51293   0.56782   0.00000  Uiso   1.00
O1744  O     0.23739   0.51439   0.81841   0.00000  Uiso   1.00
O1745  O     0.00776   0.68472   0.19885   0.00000  Uiso   1.00
O1746  O     0.00825   0.68249   0.44790   0.00000  Uiso   1.00
O1747  O     0.00894   0.68091   0.69594   0.00000  Uiso   1.00
O1748  O     0.00823   0.68260   0.94776   0.00000  Uiso   1.00
O1749  O     0.24243   0.84598   0.06885   0.00000  Uiso   1.00
O1750  O     0.24312   0.84844   0.31974   0.00000  Uiso   1.00
O1751  O     0.24233   0.84884   0.56888   0.00000  Uiso   1.00
O1752  O     0.23994   0.84771   0.81819   0.00000  Uiso   1.00
O1753  O     0.25929   0.14848   0.19586   0.00000  Uiso   1.00
O1754  O     0.26361   0.14905   0.44530   0.00000  Uiso   1.00
O1755  O     0.25780   0.15373   0.69534   0.00000  Uiso   1.00
O1756  O     0.25910   0.14837   0.94653   0.00000  Uiso   1.00
O1757  O     0.49114   0.31607   0.32041   0.00000  Uiso   1.00
O1758  O     0.48961   0.31851   0.06936   0.00000  Uiso   1.00
O1759  O     0.49211   0.32085   0.81988   0.00000  Uiso   1.00
O1760  O     0.48733   0.31867   0.56985   0.00000  Uiso   1.00
O1761  O     0.25637   0.48283   0.44150   0.00000  Uiso   1.00
O1762  O     0.25989   0.49108   0.19177   0.00000  Uiso   1.00
O1763  O     0.25425   0.48324   0.94218   0.00000  Uiso   1.00
O1764  O     0.25863   0.48207   0.69211   0.00000  Uiso   1.00
O1765  O     0.49079   0.65276   0.07217   0.00000  Uiso   1.00
O1766  O     0.49033   0.65134   0.32235   0.00000  Uiso   1.00
O1767  O     0.49160   0.65011   0.82280   0.00000  Uiso   1.00
O1768  O     0.48957   0.65036   0.57224   0.00000  Uiso   1.00
O1769  O     0.25769   0.81386   0.44486   0.00000  Uiso   1.00
O1770  O     0.48864   0.98405   0.31825   0.00000  Uiso   1.00
O1771  O     0.48958   0.98303   0.06643   0.00000  Uiso   1.00
O1772  O     0.26158   0.81351   0.19525   0.00000  Uiso   1.00
O1773  O     0.49023   0.98581   0.81765   0.00000  Uiso   1.00
O1774  O     0.25800   0.81375   0.94506   0.00000  Uiso   1.00
O1775  O     0.49060   0.98330   0.56756   0.00000  Uiso   1.00
O1776  O     0.26436   0.81716   0.69457   0.00000  Uiso   1.00
O1777  O     0.50697   0.01599   0.44236   0.00000  Uiso   1.00
O1778  O     0.73859   0.18490   0.32123   0.00000  Uiso   1.00
O1779  O     0.73815   0.18185   0.07232   0.00000  Uiso   1.00
O1780  O     0.51072   0.01566   0.19314   0.00000  Uiso   1.00
O1781  O     0.73892   0.18357   0.57224   0.00000  Uiso   1.00
O1782  O     0.50989   0.01736   0.69358   0.00000  Uiso   1.00
O1783  O     0.74143   0.18142   0.82199   0.00000  Uiso   1.00
O1784  O     0.51173   0.01592   0.94267   0.00000  Uiso   1.00
O1785  O     0.50884   0.34696   0.44694   0.00000  Uiso   1.00
O1786  O     0.50927   0.34729   0.19599   0.00000  Uiso   1.00
O1787  O     0.50770   0.35020   0.94629   0.00000  Uiso   1.00
O1788  O     0.50973   0.35300   0.69458   0.00000  Uiso   1.00
O1789  O     0.73974   0.51435   0.07276   0.00000  Uiso   1.00
O1790  O     0.73761   0.51829   0.31981   0.00000  Uiso   1.00
O1791  O     0.74368   0.51818   0.57009   0.00000  Uiso   1.00
O1792  O     0.73934   0.51993   0.82102   0.00000  Uiso   1.00
O1793  O     0.50883   0.68244   0.19797   0.00000  Uiso   1.00
O1794  O     0.50897   0.68551   0.44853   0.00000  Uiso   1.00
O1795  O     0.50335   0.68325   0.69623   0.00000  Uiso   1.00
O1796  O     0.50802   0.68329   0.94654   0.00000  Uiso   1.00
O1797  O     0.74439   0.85107   0.32027   0.00000  Uiso   1.00
O1798  O     0.73950   0.84975   0.07262   0.00000  Uiso   1.00
O1799  O     0.74225   0.85070   0.57011   0.00000  Uiso   1.00
O1800  O     0.74309   0.85304   0.82045   0.00000  Uiso   1.00
O1801  O     0.75560   0.15266   0.44413   0.00000  Uiso   1.00
O1802  O     0.75671   0.14973   0.19695   0.00000  Uiso   1.00
O1803  O     0.75693   0.14962   0.94536   0.00000  Uiso   1.00
O1804  O     0.75861   0.15196   0.69545   0.00000  Uiso   1.00
O1805  O     0.99271   0.31693   0.31998   0.00000  Uiso   1.00
O1806  O     0.99020   0.31824   0.06937   0.00000  Uiso   1.00
O1807  O     0.99001   0.31483   0.82001   0.00000  Uiso   1.00
O1808  O     0.99177   0.31340   0.56904   0.00000  Uiso   1.00
O1809  O     0.75912   0.48565   0.44568   0.00000  Uiso   1.00
O1810  O     0.75935   0.48208   0.19814   0.00000  Uiso   1.00
O1811  O     0.76096   0.48557   0.94621   0.00000  Uiso   1.00
O1812  O     0.75792   0.48524   0.69725   0.00000  Uiso   1.00
O1813  O     0.98990   0.65299   0.07089   0.00000  Uiso   1.00
O1814  O     0.98994   0.65221   0.32219   0.00000  Uiso   1.00
O1815  O     0.98807   0.65104   0.82183   0.00000  Uiso   1.00
O1816  O     0.99228   0.64919   0.57218   0.00000  Uiso   1.00
O1817  O     0.75915   0.81824   0.19585   0.00000  Uiso   1.00
O1818  O     0.99208   0.98516   0.32078   0.00000  Uiso   1.00
O1819  O     0.76223   0.82008   0.44793   0.00000  Uiso   1.00
O1820  O     0.99223   0.98419   0.07011   0.00000  Uiso   1.00
O1821  O     0.99018   0.98440   0.81993   0.00000  Uiso   1.00
O1822  O     0.75887   0.81806   0.94591   0.00000  Uiso   1.00
O1823  O     0.99354   0.98653   0.57091   0.00000  Uiso   1.00
O1824  O     0.75967   0.81987   0.69645   0.00000  Uiso   1.00
