data_final_Br-Al-SABVOH01
_audit_creation_date              2022-12-15
_audit_creation_method            'Materials Studio'
_symmetry_space_group_name_H-M    'P1'
_symmetry_Int_Tables_number       1
_symmetry_cell_setting            triclinic
loop_
_symmetry_equiv_pos_as_xyz
  x,y,z
_cell_length_a                    34.1136
_cell_length_b                    36.8677
_cell_length_c                    26.3961
_cell_angle_alpha                 90.0000
_cell_angle_beta                  90.0000
_cell_angle_gamma                 90.0000
loop_
_atom_site_label
_atom_site_type_symbol
_atom_site_fract_x
_atom_site_fract_y
_atom_site_fract_z
_atom_site_U_iso_or_equiv
_atom_site_adp_type
_atom_site_occupancy
Al1    Al    0.24583   0.16900   0.13158   0.00000  Uiso   1.00
Al2    Al    0.24700   0.16874   0.00501   0.00000  Uiso   1.00
Al3    Al    0.24786   0.16789   0.38207   0.00000  Uiso   1.00
Al4    Al    0.24910   0.16811   0.25510   0.00000  Uiso   1.00
Al5    Al    0.24713   0.16666   0.75569   0.00000  Uiso   1.00
Al6    Al    0.24603   0.16538   0.63089   0.00000  Uiso   1.00
Al7    Al    0.24718   0.16529   0.50778   0.00000  Uiso   1.00
Al8    Al    0.24681   0.16773   0.88083   0.00000  Uiso   1.00
Al9    Al    0.24866   0.50189   0.01065   0.00000  Uiso   1.00
Al10   Al    0.24540   0.50558   0.13473   0.00000  Uiso   1.00
Al11   Al    0.24752   0.50070   0.25958   0.00000  Uiso   1.00
Al12   Al    0.24760   0.49822   0.38430   0.00000  Uiso   1.00
Al13   Al    0.24311   0.50299   0.75954   0.00000  Uiso   1.00
Al14   Al    0.24649   0.50139   0.51078   0.00000  Uiso   1.00
Al15   Al    0.24903   0.50056   0.88381   0.00000  Uiso   1.00
Al16   Al    0.24721   0.50199   0.63523   0.00000  Uiso   1.00
Al17   Al    0.24617   0.83705   0.38582   0.00000  Uiso   1.00
Al18   Al    0.24665   0.83485   0.25982   0.00000  Uiso   1.00
Al19   Al    0.24714   0.83603   0.13377   0.00000  Uiso   1.00
Al20   Al    0.24596   0.82922   0.00856   0.00000  Uiso   1.00
Al21   Al    0.24476   0.83275   0.50734   0.00000  Uiso   1.00
Al22   Al    0.24715   0.83277   0.62927   0.00000  Uiso   1.00
Al23   Al    0.24732   0.82974   0.88216   0.00000  Uiso   1.00
Al24   Al    0.24725   0.82668   0.75759   0.00000  Uiso   1.00
Al25   Al    0.49545   0.00345   0.25805   0.00000  Uiso   1.00
Al26   Al    0.49484   0.00065   0.88253   0.00000  Uiso   1.00
Al27   Al    0.49619   0.33452   0.25169   0.00000  Uiso   1.00
Al28   Al    0.49663   0.33441   0.00169   0.00000  Uiso   1.00
Al29   Al    0.49698   0.33296   0.12755   0.00000  Uiso   1.00
Al30   Al    0.49582   0.33168   0.62773   0.00000  Uiso   1.00
Al31   Al    0.49702   0.33562   0.87955   0.00000  Uiso   1.00
Al32   Al    0.49832   0.33606   0.50135   0.00000  Uiso   1.00
Al33   Al    0.49565   0.33449   0.75297   0.00000  Uiso   1.00
Al34   Al    0.49425   0.66709   0.38209   0.00000  Uiso   1.00
Al35   Al    0.49562   0.66676   0.13436   0.00000  Uiso   1.00
Al36   Al    0.49520   0.66548   0.00956   0.00000  Uiso   1.00
Al37   Al    0.49455   0.66771   0.25944   0.00000  Uiso   1.00
Al38   Al    0.49807   0.66168   0.50528   0.00000  Uiso   1.00
Al39   Al    0.49815   0.66770   0.75621   0.00000  Uiso   1.00
Al40   Al    0.49768   0.66668   0.88174   0.00000  Uiso   1.00
Al41   Al    0.49859   0.66979   0.63015   0.00000  Uiso   1.00
Al42   Al    0.49393   0.99800   0.38105   0.00000  Uiso   1.00
Al43   Al    0.49170   0.99660   0.01036   0.00000  Uiso   1.00
Al44   Al    0.49847   0.99935   0.13184   0.00000  Uiso   1.00
Al45   Al    0.49710   0.99899   0.75947   0.00000  Uiso   1.00
Al46   Al    0.49656   0.99701   0.50668   0.00000  Uiso   1.00
Al47   Al    0.49713   0.99923   0.63293   0.00000  Uiso   1.00
Al48   Al    0.74365   0.16388   0.00694   0.00000  Uiso   1.00
Al49   Al    0.74635   0.16958   0.25494   0.00000  Uiso   1.00
Al50   Al    0.74884   0.16824   0.38093   0.00000  Uiso   1.00
Al51   Al    0.74500   0.16155   0.13019   0.00000  Uiso   1.00
Al52   Al    0.74406   0.16455   0.63426   0.00000  Uiso   1.00
Al53   Al    0.74709   0.16356   0.75979   0.00000  Uiso   1.00
Al54   Al    0.74870   0.16285   0.50787   0.00000  Uiso   1.00
Al55   Al    0.74872   0.16626   0.88378   0.00000  Uiso   1.00
Al56   Al    0.50051   0.33345   0.37648   0.00000  Uiso   1.00
Al57   Al    0.74710   0.50378   0.01232   0.00000  Uiso   1.00
Al58   Al    0.74732   0.50465   0.26363   0.00000  Uiso   1.00
Al59   Al    0.74966   0.49970   0.38669   0.00000  Uiso   1.00
Al60   Al    0.74754   0.49908   0.13514   0.00000  Uiso   1.00
Al61   Al    0.74799   0.50554   0.76184   0.00000  Uiso   1.00
Al62   Al    0.74814   0.49992   0.51175   0.00000  Uiso   1.00
Al63   Al    0.74660   0.50300   0.88782   0.00000  Uiso   1.00
Al64   Al    0.74637   0.49999   0.63717   0.00000  Uiso   1.00
Al65   Al    0.74750   0.83683   0.13414   0.00000  Uiso   1.00
Al66   Al    0.74412   0.83340   0.00967   0.00000  Uiso   1.00
Al67   Al    0.74703   0.83202   0.38549   0.00000  Uiso   1.00
Al68   Al    0.74728   0.83448   0.25805   0.00000  Uiso   1.00
Al69   Al    0.74639   0.83128   0.76020   0.00000  Uiso   1.00
Al70   Al    0.74827   0.83784   0.50977   0.00000  Uiso   1.00
Al71   Al    0.74527   0.83156   0.63433   0.00000  Uiso   1.00
Al72   Al    0.74671   0.83459   0.88462   0.00000  Uiso   1.00
Al73   Al    0.99519   0.00454   0.38777   0.00000  Uiso   1.00
Al74   Al    0.99354   0.00127   0.26310   0.00000  Uiso   1.00
Al75   Al    0.99561   0.00011   0.88801   0.00000  Uiso   1.00
Al76   Al    0.99620   0.33201   0.25379   0.00000  Uiso   1.00
Al77   Al    0.99613   0.33238   0.38022   0.00000  Uiso   1.00
Al78   Al    0.99749   0.33791   0.13093   0.00000  Uiso   1.00
Al79   Al    0.99756   0.33541   0.00469   0.00000  Uiso   1.00
Al80   Al    0.99853   0.33042   0.63467   0.00000  Uiso   1.00
Al81   Al    0.99762   0.33260   0.75724   0.00000  Uiso   1.00
Al82   Al    0.99368   0.33195   0.88141   0.00000  Uiso   1.00
Al83   Al    0.99875   0.33091   0.50605   0.00000  Uiso   1.00
Al84   Al    0.99701   0.67307   0.26150   0.00000  Uiso   1.00
Al85   Al    0.99672   0.66913   0.13829   0.00000  Uiso   1.00
Al86   Al    0.99760   0.66704   0.38494   0.00000  Uiso   1.00
Al87   Al    0.99830   0.66522   0.01062   0.00000  Uiso   1.00
Al88   Al    0.99922   0.66921   0.88484   0.00000  Uiso   1.00
Al89   Al    0.99725   0.66442   0.75979   0.00000  Uiso   1.00
Al90   Al    0.99977   0.66678   0.50857   0.00000  Uiso   1.00
Al91   Al    0.99751   0.66586   0.63540   0.00000  Uiso   1.00
Al92   Al    0.99764   0.99736   0.01141   0.00000  Uiso   1.00
Al93   Al    0.99540   0.99701   0.13644   0.00000  Uiso   1.00
Al94   Al    0.99859   0.99702   0.63870   0.00000  Uiso   1.00
Al95   Al    0.99646   0.99848   0.51249   0.00000  Uiso   1.00
Al96   Al    0.99797   0.99994   0.76195   0.00000  Uiso   1.00
Br97   Br    0.05430   0.10664   0.24374   0.00000  Uiso   1.00
Br98   Br    0.20171   0.05556   0.39275   0.00000  Uiso   1.00
Br99   Br    0.11361   0.02874   0.17613   0.00000  Uiso   1.00
Br100  Br    0.06647   0.09146   0.47588   0.00000  Uiso   1.00
Br101  Br    0.19189   0.06231   0.66462   0.00000  Uiso   1.00
Br102  Br    0.04988   0.10574   0.75648   0.00000  Uiso   1.00
Br103  Br    0.20264   0.04798   0.89562   0.00000  Uiso   1.00
Br104  Br    0.12734   0.16928   0.65102   0.00000  Uiso   1.00
Br105  Br    0.14345   0.11604   0.95997   0.00000  Uiso   1.00
Br106  Br    0.06450   0.23436   0.28520   0.00000  Uiso   1.00
Br107  Br    0.06708   0.23671   0.03358   0.00000  Uiso   1.00
Br108  Br    0.19885   0.38715   0.40186   0.00000  Uiso   1.00
Br109  Br    0.19166   0.27853   0.10750   0.00000  Uiso   1.00
Br110  Br    0.19316   0.27960   0.36592   0.00000  Uiso   1.00
Br111  Br    0.12841   0.32850   0.51907   0.00000  Uiso   1.00
Br112  Br    0.05742   0.22608   0.52656   0.00000  Uiso   1.00
Br113  Br    0.12562   0.33227   0.75400   0.00000  Uiso   1.00
Br114  Br    0.19345   0.27425   0.85050   0.00000  Uiso   1.00
Br115  Br    0.19476   0.39216   0.90261   0.00000  Uiso   1.00
Br116  Br    0.06825   0.58033   0.30031   0.00000  Uiso   1.00
Br117  Br    0.04088   0.54772   0.00662   0.00000  Uiso   1.00
Br118  Br    0.05816   0.43203   0.23870   0.00000  Uiso   1.00
Br119  Br    0.18521   0.40089   0.16738   0.00000  Uiso   1.00
Br120  Br    0.05732   0.55959   0.77587   0.00000  Uiso   1.00
Br121  Br    0.05938   0.56550   0.52978   0.00000  Uiso   1.00
Br122  Br    0.12137   0.48239   0.64534   0.00000  Uiso   1.00
Br123  Br    0.05020   0.44136   0.74996   0.00000  Uiso   1.00
Br124  Br    0.07047   0.42732   0.96980   0.00000  Uiso   1.00
Br125  Br    0.05811   0.77718   0.40970   0.00000  Uiso   1.00
Br126  Br    0.19601   0.72307   0.24860   0.00000  Uiso   1.00
Br127  Br    0.19782   0.60812   0.36152   0.00000  Uiso   1.00
Br128  Br    0.12977   0.66828   0.00998   0.00000  Uiso   1.00
Br129  Br    0.18114   0.73052   0.47430   0.00000  Uiso   1.00
Br130  Br    0.19460   0.61410   0.11898   0.00000  Uiso   1.00
Br131  Br    0.20101   0.70969   0.74140   0.00000  Uiso   1.00
Br132  Br    0.18977   0.61381   0.61189   0.00000  Uiso   1.00
Br133  Br    0.06621   0.76808   0.90295   0.00000  Uiso   1.00
Br134  Br    0.06404   0.76679   0.66297   0.00000  Uiso   1.00
Br135  Br    0.19083   0.60968   0.86738   0.00000  Uiso   1.00
Br136  Br    0.18168   0.93535   0.10221   0.00000  Uiso   1.00
Br137  Br    0.18933   0.94583   0.35741   0.00000  Uiso   1.00
Br138  Br    0.06026   0.89740   0.29476   0.00000  Uiso   1.00
Br139  Br    0.06549   0.89909   0.04224   0.00000  Uiso   1.00
Br140  Br    0.12464   0.82363   0.13228   0.00000  Uiso   1.00
Br141  Br    0.19452   0.94170   0.60601   0.00000  Uiso   1.00
Br142  Br    0.06173   0.89981   0.78898   0.00000  Uiso   1.00
Br143  Br    0.18604   0.92847   0.84894   0.00000  Uiso   1.00
Br144  Br    0.06422   0.90713   0.54224   0.00000  Uiso   1.00
Br145  Br    0.43476   0.09964   0.42007   0.00000  Uiso   1.00
Br146  Br    0.31164   0.07590   0.22547   0.00000  Uiso   1.00
Br147  Br    0.44700   0.11348   0.15517   0.00000  Uiso   1.00
Br148  Br    0.30386   0.05948   0.49614   0.00000  Uiso   1.00
Br149  Br    0.31784   0.07237   0.72457   0.00000  Uiso   1.00
Br150  Br    0.31333   0.06706   0.98316   0.00000  Uiso   1.00
Br151  Br    0.44704   0.11708   0.90306   0.00000  Uiso   1.00
Br152  Br    0.45155   0.11625   0.64177   0.00000  Uiso   1.00
Br153  Br    0.31051   0.26894   0.27581   0.00000  Uiso   1.00
Br154  Br    0.44132   0.21897   0.35326   0.00000  Uiso   1.00
Br155  Br    0.38329   0.36280   0.46729   0.00000  Uiso   1.00
Br156  Br    0.44707   0.21653   0.10147   0.00000  Uiso   1.00
Br157  Br    0.31608   0.26050   0.04278   0.00000  Uiso   1.00
Br158  Br    0.30356   0.39323   0.24387   0.00000  Uiso   1.00
Br159  Br    0.32519   0.25542   0.54142   0.00000  Uiso   1.00
Br160  Br    0.30496   0.27303   0.77891   0.00000  Uiso   1.00
Br161  Br    0.43649   0.23585   0.84117   0.00000  Uiso   1.00
Br162  Br    0.43618   0.21966   0.61122   0.00000  Uiso   1.00
Br163  Br    0.38287   0.36807   0.97156   0.00000  Uiso   1.00
Br164  Br    0.44419   0.44810   0.40432   0.00000  Uiso   1.00
Br165  Br    0.36917   0.48087   0.17184   0.00000  Uiso   1.00
Br166  Br    0.43669   0.56219   0.28927   0.00000  Uiso   1.00
Br167  Br    0.43177   0.56556   0.03984   0.00000  Uiso   1.00
Br168  Br    0.36257   0.53037   0.79026   0.00000  Uiso   1.00
Br169  Br    0.45367   0.54238   0.51102   0.00000  Uiso   1.00
Br170  Br    0.31071   0.40144   0.73046   0.00000  Uiso   1.00
Br171  Br    0.37134   0.47886   0.65762   0.00000  Uiso   1.00
Br172  Br    0.43911   0.44313   0.90934   0.00000  Uiso   1.00
Br173  Br    0.44751   0.78016   0.14735   0.00000  Uiso   1.00
Br174  Br    0.31011   0.72936   0.48210   0.00000  Uiso   1.00
Br175  Br    0.43607   0.77426   0.41957   0.00000  Uiso   1.00
Br176  Br    0.29756   0.71892   0.00936   0.00000  Uiso   1.00
Br177  Br    0.30707   0.73203   0.23973   0.00000  Uiso   1.00
Br178  Br    0.30814   0.60546   0.10520   0.00000  Uiso   1.00
Br179  Br    0.31105   0.60594   0.36419   0.00000  Uiso   1.00
Br180  Br    0.43929   0.76901   0.92092   0.00000  Uiso   1.00
Br181  Br    0.45093   0.78228   0.64057   0.00000  Uiso   1.00
Br182  Br    0.37909   0.64063   0.59610   0.00000  Uiso   1.00
Br183  Br    0.32491   0.73993   0.72372   0.00000  Uiso   1.00
Br184  Br    0.30993   0.60822   0.85506   0.00000  Uiso   1.00
Br185  Br    0.37764   0.83225   0.24630   0.00000  Uiso   1.00
Br186  Br    0.43867   0.88400   0.35813   0.00000  Uiso   1.00
Br187  Br    0.37547   0.99192   0.13195   0.00000  Uiso   1.00
Br188  Br    0.30804   0.93514   0.02509   0.00000  Uiso   1.00
Br189  Br    0.43745   0.89140   0.60698   0.00000  Uiso   1.00
Br190  Br    0.31695   0.92116   0.79712   0.00000  Uiso   1.00
Br191  Br    0.44595   0.88236   0.86331   0.00000  Uiso   1.00
Br192  Br    0.31411   0.93382   0.53494   0.00000  Uiso   1.00
Br193  Br    0.55575   0.10707   0.23538   0.00000  Uiso   1.00
Br194  Br    0.68529   0.06018   0.41201   0.00000  Uiso   1.00
Br195  Br    0.70136   0.04721   0.14047   0.00000  Uiso   1.00
Br196  Br    0.55255   0.10124   0.48904   0.00000  Uiso   1.00
Br197  Br    0.63188   0.00162   0.26614   0.00000  Uiso   1.00
Br198  Br    0.69685   0.04763   0.64340   0.00000  Uiso   1.00
Br199  Br    0.62864   0.14866   0.90086   0.00000  Uiso   1.00
Br200  Br    0.63275   0.00275   0.75357   0.00000  Uiso   1.00
Br201  Br    0.55337   0.10254   0.99457   0.00000  Uiso   1.00
Br202  Br    0.69365   0.27346   0.10097   0.00000  Uiso   1.00
Br203  Br    0.61978   0.35402   0.21796   0.00000  Uiso   1.00
Br204  Br    0.56067   0.23011   0.27414   0.00000  Uiso   1.00
Br205  Br    0.69711   0.28118   0.37085   0.00000  Uiso   1.00
Br206  Br    0.69092   0.39257   0.48196   0.00000  Uiso   1.00
Br207  Br    0.56396   0.23901   0.03743   0.00000  Uiso   1.00
Br208  Br    0.55366   0.22964   0.52569   0.00000  Uiso   1.00
Br209  Br    0.60985   0.29850   0.59334   0.00000  Uiso   1.00
Br210  Br    0.63965   0.20970   0.80584   0.00000  Uiso   1.00
Br211  Br    0.69216   0.28221   0.85862   0.00000  Uiso   1.00
Br212  Br    0.69049   0.39388   0.73378   0.00000  Uiso   1.00
Br213  Br    0.63421   0.46700   0.41871   0.00000  Uiso   1.00
Br214  Br    0.55240   0.56333   0.27906   0.00000  Uiso   1.00
Br215  Br    0.55919   0.56348   0.02816   0.00000  Uiso   1.00
Br216  Br    0.55936   0.43133   0.16172   0.00000  Uiso   1.00
Br217  Br    0.56663   0.42848   0.66360   0.00000  Uiso   1.00
Br218  Br    0.55805   0.56074   0.77567   0.00000  Uiso   1.00
Br219  Br    0.63355   0.52831   0.54120   0.00000  Uiso   1.00
Br220  Br    0.55113   0.44423   0.89294   0.00000  Uiso   1.00
Br221  Br    0.68871   0.40015   0.97702   0.00000  Uiso   1.00
Br222  Br    0.68963   0.72706   0.16914   0.00000  Uiso   1.00
Br223  Br    0.61565   0.63718   0.34478   0.00000  Uiso   1.00
Br224  Br    0.55590   0.76953   0.23515   0.00000  Uiso   1.00
Br225  Br    0.56419   0.76540   0.47370   0.00000  Uiso   1.00
Br226  Br    0.69314   0.72454   0.40171   0.00000  Uiso   1.00
Br227  Br    0.69155   0.60796   0.11348   0.00000  Uiso   1.00
Br228  Br    0.62984   0.66646   0.76028   0.00000  Uiso   1.00
Br229  Br    0.55941   0.76577   0.99310   0.00000  Uiso   1.00
Br230  Br    0.69593   0.71830   0.64733   0.00000  Uiso   1.00
Br231  Br    0.68867   0.60264   0.60223   0.00000  Uiso   1.00
Br232  Br    0.69662   0.61634   0.86194   0.00000  Uiso   1.00
Br233  Br    0.62535   0.84243   0.14541   0.00000  Uiso   1.00
Br234  Br    0.55943   0.89746   0.03833   0.00000  Uiso   1.00
Br235  Br    0.69622   0.94896   0.36716   0.00000  Uiso   1.00
Br236  Br    0.68550   0.93174   0.59748   0.00000  Uiso   1.00
Br237  Br    0.69106   0.94354   0.86099   0.00000  Uiso   1.00
Br238  Br    0.55722   0.89469   0.77833   0.00000  Uiso   1.00
Br239  Br    0.55572   0.89031   0.51485   0.00000  Uiso   1.00
Br240  Br    0.61580   0.82568   0.87156   0.00000  Uiso   1.00
Br241  Br    0.88423   0.18029   0.28255   0.00000  Uiso   1.00
Br242  Br    0.93606   0.10665   0.16660   0.00000  Uiso   1.00
Br243  Br    0.80504   0.06084   0.49465   0.00000  Uiso   1.00
Br244  Br    0.87396   0.01397   0.36851   0.00000  Uiso   1.00
Br245  Br    0.81479   0.05901   0.73890   0.00000  Uiso   1.00
Br246  Br    0.93007   0.10167   0.67112   0.00000  Uiso   1.00
Br247  Br    0.94379   0.11071   0.90878   0.00000  Uiso   1.00
Br248  Br    0.87697   0.17053   0.51322   0.00000  Uiso   1.00
Br249  Br    0.81977   0.07217   0.96850   0.00000  Uiso   1.00
Br250  Br    0.80126   0.27415   0.26180   0.00000  Uiso   1.00
Br251  Br    0.87413   0.31646   0.37213   0.00000  Uiso   1.00
Br252  Br    0.94078   0.22430   0.09818   0.00000  Uiso   1.00
Br253  Br    0.88715   0.37042   0.47518   0.00000  Uiso   1.00
Br254  Br    0.81288   0.26549   0.04445   0.00000  Uiso   1.00
Br255  Br    0.80695   0.27355   0.77140   0.00000  Uiso   1.00
Br256  Br    0.94898   0.21335   0.61968   0.00000  Uiso   1.00
Br257  Br    0.80306   0.39042   0.75380   0.00000  Uiso   1.00
Br258  Br    0.94339   0.21799   0.87014   0.00000  Uiso   1.00
Br259  Br    0.94985   0.55209   0.13986   0.00000  Uiso   1.00
Br260  Br    0.92520   0.42865   0.17543   0.00000  Uiso   1.00
Br261  Br    0.94523   0.44622   0.40501   0.00000  Uiso   1.00
Br262  Br    0.93560   0.56531   0.34822   0.00000  Uiso   1.00
Br263  Br    0.87322   0.51305   0.02472   0.00000  Uiso   1.00
Br264  Br    0.80773   0.40155   0.23567   0.00000  Uiso   1.00
Br265  Br    0.94620   0.44964   0.90498   0.00000  Uiso   1.00
Br266  Br    0.81689   0.40670   0.96665   0.00000  Uiso   1.00
Br267  Br    0.86167   0.46776   0.68476   0.00000  Uiso   1.00
Br268  Br    0.93656   0.55505   0.61383   0.00000  Uiso   1.00
Br269  Br    0.82237   0.59388   0.54373   0.00000  Uiso   1.00
Br270  Br    0.94025   0.77897   0.40746   0.00000  Uiso   1.00
Br271  Br    0.93570   0.76931   0.17361   0.00000  Uiso   1.00
Br272  Br    0.81620   0.73378   0.22722   0.00000  Uiso   1.00
Br273  Br    0.79422   0.61868   0.25003   0.00000  Uiso   1.00
Br274  Br    0.80186   0.72621   0.74703   0.00000  Uiso   1.00
Br275  Br    0.82301   0.75065   0.96707   0.00000  Uiso   1.00
Br276  Br    0.86870   0.67561   0.62767   0.00000  Uiso   1.00
Br277  Br    0.88077   0.65108   0.86475   0.00000  Uiso   1.00
Br278  Br    0.95131   0.78277   0.89305   0.00000  Uiso   1.00
Br279  Br    0.80581   0.61412   0.78015   0.00000  Uiso   1.00
Br280  Br    0.81221   0.93069   0.04761   0.00000  Uiso   1.00
Br281  Br    0.81032   0.93548   0.28913   0.00000  Uiso   1.00
Br282  Br    0.93874   0.89310   0.35594   0.00000  Uiso   1.00
Br283  Br    0.93091   0.90295   0.09870   0.00000  Uiso   1.00
Br284  Br    0.88185   0.82575   0.49773   0.00000  Uiso   1.00
Br285  Br    0.94834   0.88372   0.62336   0.00000  Uiso   1.00
Br286  Br    0.80969   0.93290   0.78898   0.00000  Uiso   1.00
Br287  Br    0.93732   0.89410   0.86006   0.00000  Uiso   1.00
Br288  Br    0.81188   0.94055   0.53672   0.00000  Uiso   1.00
H289   H     0.13279   0.13460   0.26080   0.00000  Uiso   1.00
H290   H     0.11761   0.02740   0.37399   0.00000  Uiso   1.00
H291   H     0.17310   0.07665   0.14425   0.00000  Uiso   1.00
H292   H     0.00596   0.04244   0.19700   0.00000  Uiso   1.00
H293   H     0.14383   0.11259   0.49588   0.00000  Uiso   1.00
H294   H     0.00824   0.04425   0.70252   0.00000  Uiso   1.00
H295   H     0.11269   0.03800   0.64566   0.00000  Uiso   1.00
H296   H     0.13180   0.13307   0.77240   0.00000  Uiso   1.00
H297   H     0.12442   0.02422   0.87788   0.00000  Uiso   1.00
H298   H     0.00445   0.04506   0.95309   0.00000  Uiso   1.00
H299   H     0.08494   0.06440   0.99357   0.00000  Uiso   1.00
H300   H     0.10870   0.37681   0.14028   0.00000  Uiso   1.00
H301   H     0.11316   0.29564   0.12283   0.00000  Uiso   1.00
H302   H     0.14751   0.21988   0.01697   0.00000  Uiso   1.00
H303   H     0.11508   0.36518   0.38601   0.00000  Uiso   1.00
H304   H     0.10806   0.29365   0.36882   0.00000  Uiso   1.00
H305   H     0.00385   0.38173   0.19632   0.00000  Uiso   1.00
H306   H     0.14982   0.21885   0.26904   0.00000  Uiso   1.00
H307   H     0.01286   0.37180   0.44095   0.00000  Uiso   1.00
H308   H     0.01052   0.29592   0.07106   0.00000  Uiso   1.00
H309   H     0.18629   0.28087   0.73391   0.00000  Uiso   1.00
H310   H     0.06799   0.22531   0.65798   0.00000  Uiso   1.00
H311   H     0.11225   0.29695   0.87288   0.00000  Uiso   1.00
H312   H     0.00219   0.28964   0.81451   0.00000  Uiso   1.00
H313   H     0.11607   0.36267   0.88693   0.00000  Uiso   1.00
H314   H     0.00066   0.28720   0.56766   0.00000  Uiso   1.00
H315   H     0.18279   0.38733   0.52251   0.00000  Uiso   1.00
H316   H     0.13364   0.20171   0.50269   0.00000  Uiso   1.00
H317   H     0.00270   0.37659   0.69957   0.00000  Uiso   1.00
H318   H     0.24792   0.21204   0.81949   0.00000  Uiso   1.00
H319   H     0.00283   0.37876   0.94216   0.00000  Uiso   1.00
H320   H     0.14410   0.55580   0.28233   0.00000  Uiso   1.00
H321   H     0.14203   0.45662   0.25331   0.00000  Uiso   1.00
H322   H     0.13896   0.53902   0.75539   0.00000  Uiso   1.00
H323   H     0.12833   0.46788   0.76621   0.00000  Uiso   1.00
H324   H     0.12447   0.52507   0.99555   0.00000  Uiso   1.00
H325   H     0.14122   0.54408   0.51911   0.00000  Uiso   1.00
H326   H     0.06804   0.42592   0.62283   0.00000  Uiso   1.00
H327   H     0.14683   0.45396   0.99809   0.00000  Uiso   1.00
H328   H     0.07016   0.76264   0.12691   0.00000  Uiso   1.00
H329   H     0.11324   0.63468   0.13695   0.00000  Uiso   1.00
H330   H     0.01013   0.71327   0.19686   0.00000  Uiso   1.00
H331   H     0.11599   0.70222   0.26759   0.00000  Uiso   1.00
H332   H     0.18847   0.72196   0.03101   0.00000  Uiso   1.00
H333   H     0.11862   0.63613   0.38273   0.00000  Uiso   1.00
H334   H     0.00853   0.70962   0.45019   0.00000  Uiso   1.00
H335   H     0.00572   0.62300   0.07550   0.00000  Uiso   1.00
H336   H     0.13829   0.79797   0.39307   0.00000  Uiso   1.00
H337   H     0.11328   0.63814   0.89595   0.00000  Uiso   1.00
H338   H     0.00559   0.62213   0.56987   0.00000  Uiso   1.00
H339   H     0.11751   0.69605   0.75235   0.00000  Uiso   1.00
H340   H     0.11149   0.63329   0.62924   0.00000  Uiso   1.00
H341   H     0.00714   0.70862   0.69736   0.00000  Uiso   1.00
H342   H     0.14015   0.78739   0.64173   0.00000  Uiso   1.00
H343   H     0.01322   0.71321   0.94832   0.00000  Uiso   1.00
H344   H     0.14125   0.79382   0.87880   0.00000  Uiso   1.00
H345   H     0.10696   0.70189   0.50348   0.00000  Uiso   1.00
H346   H     0.00205   0.62328   0.82622   0.00000  Uiso   1.00
H347   H     0.10413   0.95703   0.12871   0.00000  Uiso   1.00
H348   H     0.00181   0.95781   0.32805   0.00000  Uiso   1.00
H349   H     0.11192   0.96772   0.37691   0.00000  Uiso   1.00
H350   H     0.13760   0.87969   0.27116   0.00000  Uiso   1.00
H351   H     0.14411   0.87803   0.01899   0.00000  Uiso   1.00
H352   H     0.00041   0.95452   0.06853   0.00000  Uiso   1.00
H353   H     0.24410   0.88186   0.06345   0.00000  Uiso   1.00
H354   H     0.11478   0.96238   0.62873   0.00000  Uiso   1.00
H355   H     0.13979   0.87527   0.76237   0.00000  Uiso   1.00
H356   H     0.11102   0.95495   0.87077   0.00000  Uiso   1.00
H357   H     0.14342   0.88342   0.51712   0.00000  Uiso   1.00
H358   H     0.00166   0.95551   0.82405   0.00000  Uiso   1.00
H359   H     0.00182   0.95345   0.57450   0.00000  Uiso   1.00
H360   H     0.24721   0.88103   0.56979   0.00000  Uiso   1.00
H361   H     0.38875   0.04946   0.24899   0.00000  Uiso   1.00
H362   H     0.36494   0.14026   0.13556   0.00000  Uiso   1.00
H363   H     0.35947   0.12786   0.39833   0.00000  Uiso   1.00
H364   H     0.26014   0.12910   0.19111   0.00000  Uiso   1.00
H365   H     0.36403   0.19814   0.12310   0.00000  Uiso   1.00
H366   H     0.25246   0.12260   0.44088   0.00000  Uiso   1.00
H367   H     0.39184   0.04848   0.00316   0.00000  Uiso   1.00
H368   H     0.25623   0.12244   0.69576   0.00000  Uiso   1.00
H369   H     0.39012   0.04367   0.75289   0.00000  Uiso   1.00
H370   H     0.37028   0.13877   0.62584   0.00000  Uiso   1.00
H371   H     0.36820   0.13622   0.88591   0.00000  Uiso   1.00
H372   H     0.49986   0.04324   0.94827   0.00000  Uiso   1.00
H373   H     0.25110   0.12354   0.94046   0.00000  Uiso   1.00
H374   H     0.38638   0.03815   0.50749   0.00000  Uiso   1.00
H375   H     0.39143   0.29043   0.01394   0.00000  Uiso   1.00
H376   H     0.39176   0.28779   0.25983   0.00000  Uiso   1.00
H377   H     0.38579   0.37161   0.26156   0.00000  Uiso   1.00
H378   H     0.36322   0.20215   0.36800   0.00000  Uiso   1.00
H379   H     0.25735   0.20930   0.31447   0.00000  Uiso   1.00
H380   H     0.49607   0.28605   0.31094   0.00000  Uiso   1.00
H381   H     0.25015   0.21565   0.06704   0.00000  Uiso   1.00
H382   H     0.38766   0.29543   0.75259   0.00000  Uiso   1.00
H383   H     0.39139   0.37967   0.74755   0.00000  Uiso   1.00
H384   H     0.35901   0.20520   0.87110   0.00000  Uiso   1.00
H385   H     0.40097   0.27684   0.51546   0.00000  Uiso   1.00
H386   H     0.25117   0.21122   0.56823   0.00000  Uiso   1.00
H387   H     0.49463   0.38061   0.69176   0.00000  Uiso   1.00
H388   H     0.49572   0.28725   0.56157   0.00000  Uiso   1.00
H389   H     0.35598   0.20015   0.63104   0.00000  Uiso   1.00
H390   H     0.36157   0.53380   0.25644   0.00000  Uiso   1.00
H391   H     0.36347   0.47362   0.38379   0.00000  Uiso   1.00
H392   H     0.32825   0.42282   0.00657   0.00000  Uiso   1.00
H393   H     0.42860   0.42897   0.13888   0.00000  Uiso   1.00
H394   H     0.35572   0.54128   0.01147   0.00000  Uiso   1.00
H395   H     0.25225   0.46109   0.19602   0.00000  Uiso   1.00
H396   H     0.25583   0.45633   0.45148   0.00000  Uiso   1.00
H397   H     0.25703   0.53977   0.32528   0.00000  Uiso   1.00
H398   H     0.25367   0.54774   0.06808   0.00000  Uiso   1.00
H399   H     0.32255   0.41061   0.49926   0.00000  Uiso   1.00
H400   H     0.37004   0.52081   0.49875   0.00000  Uiso   1.00
H401   H     0.42471   0.42560   0.63110   0.00000  Uiso   1.00
H402   H     0.31954   0.59303   0.62729   0.00000  Uiso   1.00
H403   H     0.36257   0.46894   0.88211   0.00000  Uiso   1.00
H404   H     0.41955   0.58755   0.76782   0.00000  Uiso   1.00
H405   H     0.25432   0.54604   0.57112   0.00000  Uiso   1.00
H406   H     0.26395   0.46020   0.95443   0.00000  Uiso   1.00
H407   H     0.25021   0.54508   0.82050   0.00000  Uiso   1.00
H408   H     0.25753   0.46080   0.69911   0.00000  Uiso   1.00
H409   H     0.39163   0.62555   0.13091   0.00000  Uiso   1.00
H410   H     0.38733   0.62767   0.38431   0.00000  Uiso   1.00
H411   H     0.38395   0.70494   0.26371   0.00000  Uiso   1.00
H412   H     0.38041   0.70109   0.01310   0.00000  Uiso   1.00
H413   H     0.25386   0.79071   0.19712   0.00000  Uiso   1.00
H414   H     0.25038   0.78890   0.44445   0.00000  Uiso   1.00
H415   H     0.49957   0.71319   0.19666   0.00000  Uiso   1.00
H416   H     0.39149   0.71234   0.49229   0.00000  Uiso   1.00
H417   H     0.39114   0.62481   0.87100   0.00000  Uiso   1.00
H418   H     0.39953   0.71840   0.75067   0.00000  Uiso   1.00
H419   H     0.25483   0.78478   0.94586   0.00000  Uiso   1.00
H420   H     0.36135   0.79245   0.89257   0.00000  Uiso   1.00
H421   H     0.25107   0.78418   0.69037   0.00000  Uiso   1.00
H422   H     0.38359   0.95748   0.00370   0.00000  Uiso   1.00
H423   H     0.31818   0.93732   0.14707   0.00000  Uiso   1.00
H424   H     0.43705   0.89052   0.23546   0.00000  Uiso   1.00
H425   H     0.36374   0.86381   0.38294   0.00000  Uiso   1.00
H426   H     0.25968   0.87824   0.32341   0.00000  Uiso   1.00
H427   H     0.36748   0.80633   0.12940   0.00000  Uiso   1.00
H428   H     0.49883   0.95328   0.06649   0.00000  Uiso   1.00
H429   H     0.49858   0.95542   0.31361   0.00000  Uiso   1.00
H430   H     0.35985   0.80202   0.38960   0.00000  Uiso   1.00
H431   H     0.35864   0.87007   0.62448   0.00000  Uiso   1.00
H432   H     0.39096   0.95035   0.76650   0.00000  Uiso   1.00
H433   H     0.36563   0.86003   0.88046   0.00000  Uiso   1.00
H434   H     0.37002   0.80787   0.62345   0.00000  Uiso   1.00
H435   H     0.39660   0.95072   0.51924   0.00000  Uiso   1.00
H436   H     0.25139   0.86970   0.82098   0.00000  Uiso   1.00
H437   H     0.49805   0.95410   0.81566   0.00000  Uiso   1.00
H438   H     0.50023   0.04578   0.19447   0.00000  Uiso   1.00
H439   H     0.61956   0.02230   0.12375   0.00000  Uiso   1.00
H440   H     0.63720   0.12923   0.25400   0.00000  Uiso   1.00
H441   H     0.60457   0.04302   0.39508   0.00000  Uiso   1.00
H442   H     0.63898   0.12297   0.00650   0.00000  Uiso   1.00
H443   H     0.50179   0.04326   0.44662   0.00000  Uiso   1.00
H444   H     0.61772   0.02210   0.62416   0.00000  Uiso   1.00
H445   H     0.68430   0.06120   0.77171   0.00000  Uiso   1.00
H446   H     0.57273   0.09127   0.88320   0.00000  Uiso   1.00
H447   H     0.63578   0.12486   0.50291   0.00000  Uiso   1.00
H448   H     0.50971   0.04531   0.69501   0.00000  Uiso   1.00
H449   H     0.74703   0.11862   0.69757   0.00000  Uiso   1.00
H450   H     0.62202   0.30409   0.38975   0.00000  Uiso   1.00
H451   H     0.61143   0.29876   0.12172   0.00000  Uiso   1.00
H452   H     0.64130   0.21233   0.01262   0.00000  Uiso   1.00
H453   H     0.50043   0.28921   0.06215   0.00000  Uiso   1.00
H454   H     0.50282   0.37813   0.43757   0.00000  Uiso   1.00
H455   H     0.50286   0.38012   0.19061   0.00000  Uiso   1.00
H456   H     0.68343   0.39679   0.26056   0.00000  Uiso   1.00
H457   H     0.63723   0.20758   0.25454   0.00000  Uiso   1.00
H458   H     0.74104   0.20823   0.07106   0.00000  Uiso   1.00
H459   H     0.50671   0.38051   0.94230   0.00000  Uiso   1.00
H460   H     0.57644   0.25166   0.76944   0.00000  Uiso   1.00
H461   H     0.60973   0.36813   0.50429   0.00000  Uiso   1.00
H462   H     0.61685   0.30214   0.87890   0.00000  Uiso   1.00
H463   H     0.67431   0.25445   0.62991   0.00000  Uiso   1.00
H464   H     0.61920   0.36504   0.76047   0.00000  Uiso   1.00
H465   H     0.50671   0.28732   0.81655   0.00000  Uiso   1.00
H466   H     0.63112   0.20180   0.50906   0.00000  Uiso   1.00
H467   H     0.60922   0.37223   0.99895   0.00000  Uiso   1.00
H468   H     0.62655   0.53109   0.25374   0.00000  Uiso   1.00
H469   H     0.63897   0.45934   0.14141   0.00000  Uiso   1.00
H470   H     0.64589   0.54586   0.00966   0.00000  Uiso   1.00
H471   H     0.58002   0.42111   0.38578   0.00000  Uiso   1.00
H472   H     0.67151   0.58393   0.37630   0.00000  Uiso   1.00
H473   H     0.74228   0.45353   0.20119   0.00000  Uiso   1.00
H474   H     0.64890   0.45005   0.64584   0.00000  Uiso   1.00
H475   H     0.63020   0.46985   0.87290   0.00000  Uiso   1.00
H476   H     0.63380   0.53695   0.75824   0.00000  Uiso   1.00
H477   H     0.56987   0.57275   0.50800   0.00000  Uiso   1.00
H478   H     0.63895   0.79206   0.24944   0.00000  Uiso   1.00
H479   H     0.50903   0.62585   0.07386   0.00000  Uiso   1.00
H480   H     0.61416   0.70455   0.14979   0.00000  Uiso   1.00
H481   H     0.61243   0.63441   0.13144   0.00000  Uiso   1.00
H482   H     0.61102   0.70594   0.38910   0.00000  Uiso   1.00
H483   H     0.50159   0.62234   0.32257   0.00000  Uiso   1.00
H484   H     0.50237   0.70918   0.44732   0.00000  Uiso   1.00
H485   H     0.64253   0.78942   0.49508   0.00000  Uiso   1.00
H486   H     0.63599   0.79277   0.01418   0.00000  Uiso   1.00
H487   H     0.60882   0.62161   0.61544   0.00000  Uiso   1.00
H488   H     0.68960   0.71876   0.78815   0.00000  Uiso   1.00
H489   H     0.56670   0.76399   0.86710   0.00000  Uiso   1.00
H490   H     0.62123   0.69449   0.62508   0.00000  Uiso   1.00
H491   H     0.50311   0.61981   0.56718   0.00000  Uiso   1.00
H492   H     0.61408   0.63614   0.88251   0.00000  Uiso   1.00
H493   H     0.50997   0.71375   0.69569   0.00000  Uiso   1.00
H494   H     0.50583   0.62420   0.82121   0.00000  Uiso   1.00
H495   H     0.51183   0.70865   0.94812   0.00000  Uiso   1.00
H496   H     0.74551   0.78805   0.94757   0.00000  Uiso   1.00
H497   H     0.63666   0.87609   0.01402   0.00000  Uiso   1.00
H498   H     0.56534   0.90095   0.15884   0.00000  Uiso   1.00
H499   H     0.68630   0.94453   0.24661   0.00000  Uiso   1.00
H500   H     0.61970   0.97646   0.38679   0.00000  Uiso   1.00
H501   H     0.60459   0.95808   0.62233   0.00000  Uiso   1.00
H502   H     0.60627   0.96419   0.87794   0.00000  Uiso   1.00
H503   H     0.63850   0.87535   0.76248   0.00000  Uiso   1.00
H504   H     0.50794   0.95521   0.56830   0.00000  Uiso   1.00
H505   H     0.63825   0.87465   0.50918   0.00000  Uiso   1.00
H506   H     0.75496   0.12220   0.19499   0.00000  Uiso   1.00
H507   H     0.94174   0.12220   0.28898   0.00000  Uiso   1.00
H508   H     0.85430   0.12820   0.13652   0.00000  Uiso   1.00
H509   H     0.81766   0.06451   0.34021   0.00000  Uiso   1.00
H510   H     0.76723   0.12559   0.45029   0.00000  Uiso   1.00
H511   H     0.99471   0.04615   0.45177   0.00000  Uiso   1.00
H512   H     0.89830   0.04581   0.00159   0.00000  Uiso   1.00
H513   H     0.86446   0.19547   0.12670   0.00000  Uiso   1.00
H514   H     0.89780   0.04632   0.75195   0.00000  Uiso   1.00
H515   H     0.85659   0.12957   0.64684   0.00000  Uiso   1.00
H516   H     0.86104   0.19854   0.88731   0.00000  Uiso   1.00
H517   H     0.86587   0.13281   0.89076   0.00000  Uiso   1.00
H518   H     0.75182   0.11841   0.94717   0.00000  Uiso   1.00
H519   H     0.88488   0.03677   0.51263   0.00000  Uiso   1.00
H520   H     0.75770   0.21028   0.31855   0.00000  Uiso   1.00
H521   H     0.99936   0.28677   0.31963   0.00000  Uiso   1.00
H522   H     0.93397   0.22728   0.49376   0.00000  Uiso   1.00
H523   H     0.88373   0.29898   0.24584   0.00000  Uiso   1.00
H524   H     0.81602   0.26861   0.40407   0.00000  Uiso   1.00
H525   H     0.89089   0.37448   0.25561   0.00000  Uiso   1.00
H526   H     0.88993   0.29373   0.01703   0.00000  Uiso   1.00
H527   H     0.89491   0.38908   0.99515   0.00000  Uiso   1.00
H528   H     0.89045   0.28859   0.75740   0.00000  Uiso   1.00
H529   H     0.88518   0.37008   0.76407   0.00000  Uiso   1.00
H530   H     0.76055   0.20548   0.57269   0.00000  Uiso   1.00
H531   H     0.76282   0.21097   0.82177   0.00000  Uiso   1.00
H532   H     0.86279   0.20051   0.62364   0.00000  Uiso   1.00
H533   H     0.75965   0.54664   0.32792   0.00000  Uiso   1.00
H534   H     0.93021   0.56980   0.00730   0.00000  Uiso   1.00
H535   H     0.87028   0.52657   0.15515   0.00000  Uiso   1.00
H536   H     0.86854   0.46897   0.38854   0.00000  Uiso   1.00
H537   H     0.85892   0.53501   0.38193   0.00000  Uiso   1.00
H538   H     0.84795   0.45025   0.14842   0.00000  Uiso   1.00
H539   H     0.76387   0.46125   0.45669   0.00000  Uiso   1.00
H540   H     0.76689   0.54163   0.07780   0.00000  Uiso   1.00
H541   H     0.75360   0.54830   0.82716   0.00000  Uiso   1.00
H542   H     0.85288   0.53931   0.63247   0.00000  Uiso   1.00
H543   H     0.86611   0.47461   0.88291   0.00000  Uiso   1.00
H544   H     0.92507   0.42458   0.65032   0.00000  Uiso   1.00
H545   H     0.75370   0.45408   0.70322   0.00000  Uiso   1.00
H546   H     0.75702   0.45981   0.94941   0.00000  Uiso   1.00
H547   H     0.82106   0.59663   0.89094   0.00000  Uiso   1.00
H548   H     0.75496   0.54389   0.57323   0.00000  Uiso   1.00
H549   H     0.82412   0.41127   0.51175   0.00000  Uiso   1.00
H550   H     0.87601   0.64240   0.25090   0.00000  Uiso   1.00
H551   H     0.89295   0.71070   0.25270   0.00000  Uiso   1.00
H552   H     0.75743   0.79164   0.19489   0.00000  Uiso   1.00
H553   H     0.75621   0.79147   0.44873   0.00000  Uiso   1.00
H554   H     0.85885   0.79479   0.39421   0.00000  Uiso   1.00
H555   H     0.86008   0.79654   0.14071   0.00000  Uiso   1.00
H556   H     0.99610   0.62195   0.32089   0.00000  Uiso   1.00
H557   H     0.88371   0.70420   0.76046   0.00000  Uiso   1.00
H558   H     0.82004   0.74129   0.62106   0.00000  Uiso   1.00
H559   H     0.93970   0.76895   0.52087   0.00000  Uiso   1.00
H560   H     0.88572   0.63666   0.75452   0.00000  Uiso   1.00
H561   H     0.90007   0.61524   0.52025   0.00000  Uiso   1.00
H562   H     0.89841   0.71748   0.99810   0.00000  Uiso   1.00
H563   H     0.76688   0.79231   0.69873   0.00000  Uiso   1.00
H564   H     0.75446   0.87842   0.32096   0.00000  Uiso   1.00
H565   H     0.85669   0.87335   0.12689   0.00000  Uiso   1.00
H566   H     0.88615   0.96417   0.26336   0.00000  Uiso   1.00
H567   H     0.85939   0.87032   0.37744   0.00000  Uiso   1.00
H568   H     0.89440   0.95735   0.02242   0.00000  Uiso   1.00
H569   H     0.75366   0.87909   0.06913   0.00000  Uiso   1.00
H570   H     0.89016   0.96462   0.50554   0.00000  Uiso   1.00
H571   H     0.86753   0.85784   0.64150   0.00000  Uiso   1.00
H572   H     0.88880   0.95909   0.76169   0.00000  Uiso   1.00
H573   H     0.85478   0.87727   0.87868   0.00000  Uiso   1.00
H574   H     0.75141   0.87788   0.82503   0.00000  Uiso   1.00
H575   H     0.75200   0.88049   0.57872   0.00000  Uiso   1.00
H576   H     0.86720   0.80296   0.88275   0.00000  Uiso   1.00
C577   C     0.10565   0.06759   0.02672   0.00000  Uiso   1.00
C578   C     0.14003   0.08789   0.02169   0.00000  Uiso   1.00
C579   C     0.12182   0.05313   0.11434   0.00000  Uiso   1.00
C580   C     0.15515   0.07537   0.11191   0.00000  Uiso   1.00
C581   C     0.05799   0.03028   0.07376   0.00000  Uiso   1.00
C582   C     0.09534   0.04970   0.07329   0.00000  Uiso   1.00
C583   C     0.19599   0.12289   0.06747   0.00000  Uiso   1.00
C584   C     0.16412   0.09479   0.06676   0.00000  Uiso   1.00
C585   C     0.12226   0.04982   0.34949   0.00000  Uiso   1.00
C586   C     0.15845   0.06786   0.34766   0.00000  Uiso   1.00
C587   C     0.09671   0.09135   0.28617   0.00000  Uiso   1.00
C588   C     0.13251   0.11056   0.28654   0.00000  Uiso   1.00
C589   C     0.05323   0.04048   0.32117   0.00000  Uiso   1.00
C590   C     0.09031   0.06231   0.32135   0.00000  Uiso   1.00
C591   C     0.19947   0.12101   0.31642   0.00000  Uiso   1.00
C592   C     0.16382   0.09727   0.31492   0.00000  Uiso   1.00
C593   C     0.11957   0.05357   0.61301   0.00000  Uiso   1.00
C594   C     0.15457   0.07108   0.61196   0.00000  Uiso   1.00
C595   C     0.10041   0.08047   0.53096   0.00000  Uiso   1.00
C596   C     0.13854   0.09488   0.52780   0.00000  Uiso   1.00
C597   C     0.05368   0.03753   0.57446   0.00000  Uiso   1.00
C598   C     0.09178   0.05777   0.57293   0.00000  Uiso   1.00
C599   C     0.19832   0.11783   0.57032   0.00000  Uiso   1.00
C600   C     0.16569   0.09148   0.57002   0.00000  Uiso   1.00
C601   C     0.12577   0.04553   0.85331   0.00000  Uiso   1.00
C602   C     0.16046   0.06428   0.85226   0.00000  Uiso   1.00
C603   C     0.09438   0.08837   0.79335   0.00000  Uiso   1.00
C604   C     0.13091   0.10718   0.78926   0.00000  Uiso   1.00
C605   C     0.05424   0.03812   0.82767   0.00000  Uiso   1.00
C606   C     0.09317   0.05710   0.82492   0.00000  Uiso   1.00
C607   C     0.19772   0.11983   0.81988   0.00000  Uiso   1.00
C608   C     0.16329   0.09587   0.82079   0.00000  Uiso   1.00
C609   C     0.20060   0.21722   0.19342   0.00000  Uiso   1.00
C610   C     0.11702   0.39406   0.10949   0.00000  Uiso   1.00
C611   C     0.19737   0.21244   0.44505   0.00000  Uiso   1.00
C612   C     0.12332   0.38093   0.35170   0.00000  Uiso   1.00
C613   C     0.15417   0.26214   0.15686   0.00000  Uiso   1.00
C614   C     0.11679   0.27675   0.15574   0.00000  Uiso   1.00
C615   C     0.16658   0.23965   0.19657   0.00000  Uiso   1.00
C616   C     0.05246   0.29443   0.19046   0.00000  Uiso   1.00
C617   C     0.08923   0.27133   0.19317   0.00000  Uiso   1.00
C618   C     0.14053   0.23546   0.23709   0.00000  Uiso   1.00
C619   C     0.10224   0.25026   0.23621   0.00000  Uiso   1.00
C620   C     0.05531   0.37561   0.06685   0.00000  Uiso   1.00
C621   C     0.15351   0.25917   0.40728   0.00000  Uiso   1.00
C622   C     0.11477   0.27383   0.39932   0.00000  Uiso   1.00
C623   C     0.16013   0.23247   0.44212   0.00000  Uiso   1.00
C624   C     0.05084   0.28973   0.44014   0.00000  Uiso   1.00
C625   C     0.08466   0.26604   0.43637   0.00000  Uiso   1.00
C626   C     0.12938   0.22254   0.47533   0.00000  Uiso   1.00
C627   C     0.09283   0.23931   0.47301   0.00000  Uiso   1.00
C628   C     0.05675   0.36632   0.31581   0.00000  Uiso   1.00
C629   C     0.09307   0.38747   0.31575   0.00000  Uiso   1.00
C630   C     0.09296   0.39614   0.06639   0.00000  Uiso   1.00
C631   C     0.12617   0.37547   0.54669   0.00000  Uiso   1.00
C632   C     0.05347   0.36979   0.82212   0.00000  Uiso   1.00
C633   C     0.19731   0.21389   0.94381   0.00000  Uiso   1.00
C634   C     0.19707   0.21091   0.68968   0.00000  Uiso   1.00
C635   C     0.10306   0.25049   0.98286   0.00000  Uiso   1.00
C636   C     0.13860   0.23496   0.98310   0.00000  Uiso   1.00
C637   C     0.12870   0.21914   0.67165   0.00000  Uiso   1.00
C638   C     0.09322   0.23808   0.67385   0.00000  Uiso   1.00
C639   C     0.08884   0.39341   0.82626   0.00000  Uiso   1.00
C640   C     0.16300   0.23577   0.68826   0.00000  Uiso   1.00
C641   C     0.05415   0.29159   0.69813   0.00000  Uiso   1.00
C642   C     0.09144   0.27164   0.69948   0.00000  Uiso   1.00
C643   C     0.16215   0.26754   0.71703   0.00000  Uiso   1.00
C644   C     0.12665   0.28564   0.72275   0.00000  Uiso   1.00
C645   C     0.05512   0.36675   0.57143   0.00000  Uiso   1.00
C646   C     0.15610   0.26254   0.90293   0.00000  Uiso   1.00
C647   C     0.11987   0.27926   0.90424   0.00000  Uiso   1.00
C648   C     0.16439   0.23872   0.94383   0.00000  Uiso   1.00
C649   C     0.05485   0.29583   0.94256   0.00000  Uiso   1.00
C650   C     0.09232   0.27441   0.94247   0.00000  Uiso   1.00
C651   C     0.09186   0.38791   0.56992   0.00000  Uiso   1.00
C652   C     0.11837   0.38492   0.86136   0.00000  Uiso   1.00
C653   C     0.15820   0.39813   0.54439   0.00000  Uiso   1.00
C654   C     0.13749   0.56369   0.48679   0.00000  Uiso   1.00
C655   C     0.10481   0.41841   0.02526   0.00000  Uiso   1.00
C656   C     0.10037   0.41580   0.27905   0.00000  Uiso   1.00
C657   C     0.19969   0.55346   0.20342   0.00000  Uiso   1.00
C658   C     0.16470   0.57800   0.20857   0.00000  Uiso   1.00
C659   C     0.13605   0.43638   0.28084   0.00000  Uiso   1.00
C660   C     0.13823   0.57377   0.24955   0.00000  Uiso   1.00
C661   C     0.14033   0.43503   0.02783   0.00000  Uiso   1.00
C662   C     0.10246   0.59020   0.24823   0.00000  Uiso   1.00
C663   C     0.20030   0.45566   0.07216   0.00000  Uiso   1.00
C664   C     0.16475   0.43140   0.06960   0.00000  Uiso   1.00
C665   C     0.10103   0.58068   0.48500   0.00000  Uiso   1.00
C666   C     0.16545   0.42946   0.31641   0.00000  Uiso   1.00
C667   C     0.20033   0.54833   0.44797   0.00000  Uiso   1.00
C668   C     0.16603   0.57178   0.44966   0.00000  Uiso   1.00
C669   C     0.15873   0.59890   0.41274   0.00000  Uiso   1.00
C670   C     0.15822   0.40116   0.35191   0.00000  Uiso   1.00
C671   C     0.20089   0.45168   0.31827   0.00000  Uiso   1.00
C672   C     0.15284   0.40919   0.11039   0.00000  Uiso   1.00
C673   C     0.12242   0.54911   0.97056   0.00000  Uiso   1.00
C674   C     0.09603   0.57649   0.72767   0.00000  Uiso   1.00
C675   C     0.13273   0.55978   0.72877   0.00000  Uiso   1.00
C676   C     0.12821   0.44149   0.60428   0.00000  Uiso   1.00
C677   C     0.08711   0.56784   0.97414   0.00000  Uiso   1.00
C678   C     0.14921   0.59269   0.91238   0.00000  Uiso   1.00
C679   C     0.19672   0.54945   0.69365   0.00000  Uiso   1.00
C680   C     0.16105   0.56963   0.69305   0.00000  Uiso   1.00
C681   C     0.19820   0.45168   0.57537   0.00000  Uiso   1.00
C682   C     0.16127   0.43010   0.57393   0.00000  Uiso   1.00
C683   C     0.15978   0.43295   0.82304   0.00000  Uiso   1.00
C684   C     0.09113   0.42412   0.79389   0.00000  Uiso   1.00
C685   C     0.19136   0.54041   0.94661   0.00000  Uiso   1.00
C686   C     0.15485   0.56156   0.94457   0.00000  Uiso   1.00
C687   C     0.12721   0.44377   0.79135   0.00000  Uiso   1.00
C688   C     0.19625   0.45550   0.82373   0.00000  Uiso   1.00
C689   C     0.09404   0.41980   0.60102   0.00000  Uiso   1.00
C690   C     0.15459   0.40265   0.85688   0.00000  Uiso   1.00
C691   C     0.15311   0.59654   0.65872   0.00000  Uiso   1.00
C692   C     0.12354   0.61730   0.41198   0.00000  Uiso   1.00
C693   C     0.09498   0.60787   0.44805   0.00000  Uiso   1.00
C694   C     0.19625   0.79158   0.32570   0.00000  Uiso   1.00
C695   C     0.05526   0.63339   0.20519   0.00000  Uiso   1.00
C696   C     0.09560   0.75479   0.10479   0.00000  Uiso   1.00
C697   C     0.12940   0.77481   0.10395   0.00000  Uiso   1.00
C698   C     0.12666   0.71129   0.04724   0.00000  Uiso   1.00
C699   C     0.16172   0.73213   0.04892   0.00000  Uiso   1.00
C700   C     0.05720   0.70059   0.07320   0.00000  Uiso   1.00
C701   C     0.09196   0.72256   0.07399   0.00000  Uiso   1.00
C702   C     0.16226   0.76464   0.07600   0.00000  Uiso   1.00
C703   C     0.05742   0.62778   0.44630   0.00000  Uiso   1.00
C704   C     0.11928   0.72374   0.29402   0.00000  Uiso   1.00
C705   C     0.15387   0.74333   0.29093   0.00000  Uiso   1.00
C706   C     0.09636   0.75925   0.36297   0.00000  Uiso   1.00
C707   C     0.13174   0.77724   0.36448   0.00000  Uiso   1.00
C708   C     0.05334   0.71034   0.32599   0.00000  Uiso   1.00
C709   C     0.08898   0.73226   0.32605   0.00000  Uiso   1.00
C710   C     0.19707   0.78764   0.07607   0.00000  Uiso   1.00
C711   C     0.16142   0.76961   0.32769   0.00000  Uiso   1.00
C712   C     0.12061   0.61891   0.16847   0.00000  Uiso   1.00
C713   C     0.15703   0.60375   0.17104   0.00000  Uiso   1.00
C714   C     0.09303   0.61444   0.20647   0.00000  Uiso   1.00
C715   C     0.20332   0.77723   0.82154   0.00000  Uiso   1.00
C716   C     0.08956   0.60541   0.69364   0.00000  Uiso   1.00
C717   C     0.05247   0.62427   0.69463   0.00000  Uiso   1.00
C718   C     0.11540   0.72036   0.53540   0.00000  Uiso   1.00
C719   C     0.15165   0.73733   0.53324   0.00000  Uiso   1.00
C720   C     0.10268   0.74791   0.61730   0.00000  Uiso   1.00
C721   C     0.13859   0.76386   0.61507   0.00000  Uiso   1.00
C722   C     0.05183   0.70711   0.57431   0.00000  Uiso   1.00
C723   C     0.08955   0.72633   0.57606   0.00000  Uiso   1.00
C724   C     0.19788   0.78413   0.57105   0.00000  Uiso   1.00
C725   C     0.16318   0.75983   0.57438   0.00000  Uiso   1.00
C726   C     0.05100   0.62385   0.94691   0.00000  Uiso   1.00
C727   C     0.12290   0.71514   0.78334   0.00000  Uiso   1.00
C728   C     0.16027   0.73053   0.78334   0.00000  Uiso   1.00
C729   C     0.10214   0.75127   0.85494   0.00000  Uiso   1.00
C730   C     0.13838   0.77042   0.85292   0.00000  Uiso   1.00
C731   C     0.05586   0.70585   0.81820   0.00000  Uiso   1.00
C732   C     0.09381   0.72491   0.81925   0.00000  Uiso   1.00
C733   C     0.11745   0.61228   0.65581   0.00000  Uiso   1.00
C734   C     0.16662   0.75874   0.81985   0.00000  Uiso   1.00
C735   C     0.11461   0.61077   0.91364   0.00000  Uiso   1.00
C736   C     0.08604   0.60138   0.94719   0.00000  Uiso   1.00
C737   C     0.14711   0.92251   0.15865   0.00000  Uiso   1.00
C738   C     0.10971   0.93916   0.15874   0.00000  Uiso   1.00
C739   C     0.19466   0.87828   0.20033   0.00000  Uiso   1.00
C740   C     0.15891   0.90156   0.19975   0.00000  Uiso   1.00
C741   C     0.04630   0.95470   0.19902   0.00000  Uiso   1.00
C742   C     0.08295   0.93361   0.19911   0.00000  Uiso   1.00
C743   C     0.13202   0.89720   0.23886   0.00000  Uiso   1.00
C744   C     0.09442   0.91074   0.23738   0.00000  Uiso   1.00
C745   C     0.15499   0.93197   0.40858   0.00000  Uiso   1.00
C746   C     0.11778   0.94802   0.40711   0.00000  Uiso   1.00
C747   C     0.19824   0.88204   0.44507   0.00000  Uiso   1.00
C748   C     0.16305   0.90467   0.44651   0.00000  Uiso   1.00
C749   C     0.05721   0.96922   0.45066   0.00000  Uiso   1.00
C750   C     0.08973   0.94381   0.44683   0.00000  Uiso   1.00
C751   C     0.13555   0.90191   0.48705   0.00000  Uiso   1.00
C752   C     0.09873   0.92022   0.48785   0.00000  Uiso   1.00
C753   C     0.09790   0.91073   0.98487   0.00000  Uiso   1.00
C754   C     0.15581   0.92647   0.65904   0.00000  Uiso   1.00
C755   C     0.12071   0.94548   0.66157   0.00000  Uiso   1.00
C756   C     0.19841   0.87769   0.69668   0.00000  Uiso   1.00
C757   C     0.16335   0.90277   0.69807   0.00000  Uiso   1.00
C758   C     0.05436   0.95904   0.70284   0.00000  Uiso   1.00
C759   C     0.09397   0.94179   0.70419   0.00000  Uiso   1.00
C760   C     0.13745   0.89856   0.73906   0.00000  Uiso   1.00
C761   C     0.10155   0.91533   0.74005   0.00000  Uiso   1.00
C762   C     0.15169   0.92287   0.90695   0.00000  Uiso   1.00
C763   C     0.11497   0.93901   0.90612   0.00000  Uiso   1.00
C764   C     0.19743   0.87602   0.94522   0.00000  Uiso   1.00
C765   C     0.16279   0.90102   0.94904   0.00000  Uiso   1.00
C766   C     0.05327   0.95678   0.94753   0.00000  Uiso   1.00
C767   C     0.08739   0.93472   0.94478   0.00000  Uiso   1.00
C768   C     0.13555   0.89638   0.98720   0.00000  Uiso   1.00
C769   C     0.35138   0.08650   0.03145   0.00000  Uiso   1.00
C770   C     0.38782   0.07031   0.02977   0.00000  Uiso   1.00
C771   C     0.30454   0.13321   0.07092   0.00000  Uiso   1.00
C772   C     0.34255   0.11183   0.06916   0.00000  Uiso   1.00
C773   C     0.44843   0.04873   0.07209   0.00000  Uiso   1.00
C774   C     0.41493   0.07386   0.07017   0.00000  Uiso   1.00
C775   C     0.37134   0.11875   0.10683   0.00000  Uiso   1.00
C776   C     0.40767   0.10282   0.10319   0.00000  Uiso   1.00
C777   C     0.34867   0.08579   0.28210   0.00000  Uiso   1.00
C778   C     0.38266   0.06670   0.28097   0.00000  Uiso   1.00
C779   C     0.30726   0.13173   0.32268   0.00000  Uiso   1.00
C780   C     0.34129   0.10914   0.32324   0.00000  Uiso   1.00
C781   C     0.44338   0.04557   0.32120   0.00000  Uiso   1.00
C782   C     0.41013   0.06964   0.32120   0.00000  Uiso   1.00
C783   C     0.36592   0.10895   0.36607   0.00000  Uiso   1.00
C784   C     0.40245   0.09053   0.36532   0.00000  Uiso   1.00
C785   C     0.34729   0.07596   0.53627   0.00000  Uiso   1.00
C786   C     0.38424   0.06010   0.53127   0.00000  Uiso   1.00
C787   C     0.30398   0.12689   0.56985   0.00000  Uiso   1.00
C788   C     0.34245   0.10453   0.57008   0.00000  Uiso   1.00
C789   C     0.44989   0.04552   0.56723   0.00000  Uiso   1.00
C790   C     0.41467   0.06781   0.56664   0.00000  Uiso   1.00
C791   C     0.37488   0.11587   0.60109   0.00000  Uiso   1.00
C792   C     0.41115   0.09701   0.59865   0.00000  Uiso   1.00
C793   C     0.35065   0.08356   0.77993   0.00000  Uiso   1.00
C794   C     0.38653   0.06379   0.78156   0.00000  Uiso   1.00
C795   C     0.30736   0.13173   0.81730   0.00000  Uiso   1.00
C796   C     0.34410   0.11048   0.81776   0.00000  Uiso   1.00
C797   C     0.45336   0.04939   0.81848   0.00000  Uiso   1.00
C798   C     0.41744   0.07330   0.81684   0.00000  Uiso   1.00
C799   C     0.37089   0.11530   0.85685   0.00000  Uiso   1.00
C800   C     0.40954   0.09928   0.85436   0.00000  Uiso   1.00
C801   C     0.38071   0.39349   0.28757   0.00000  Uiso   1.00
C802   C     0.30600   0.20577   0.19184   0.00000  Uiso   1.00
C803   C     0.30545   0.20347   0.44305   0.00000  Uiso   1.00
C804   C     0.37109   0.21843   0.40144   0.00000  Uiso   1.00
C805   C     0.38761   0.26835   0.22934   0.00000  Uiso   1.00
C806   C     0.35208   0.25096   0.22926   0.00000  Uiso   1.00
C807   C     0.40940   0.23466   0.15346   0.00000  Uiso   1.00
C808   C     0.45011   0.28604   0.19046   0.00000  Uiso   1.00
C809   C     0.41746   0.26049   0.19218   0.00000  Uiso   1.00
C810   C     0.37191   0.21763   0.15346   0.00000  Uiso   1.00
C811   C     0.34404   0.22478   0.19193   0.00000  Uiso   1.00
C812   C     0.44538   0.37839   0.06715   0.00000  Uiso   1.00
C813   C     0.40875   0.23466   0.40307   0.00000  Uiso   1.00
C814   C     0.45366   0.28490   0.43698   0.00000  Uiso   1.00
C815   C     0.41950   0.25804   0.44095   0.00000  Uiso   1.00
C816   C     0.35815   0.24171   0.48480   0.00000  Uiso   1.00
C817   C     0.34439   0.22275   0.44225   0.00000  Uiso   1.00
C818   C     0.44685   0.38055   0.31986   0.00000  Uiso   1.00
C819   C     0.39505   0.25889   0.48447   0.00000  Uiso   1.00
C820   C     0.37916   0.39526   0.52353   0.00000  Uiso   1.00
C821   C     0.34803   0.25234   0.98182   0.00000  Uiso   1.00
C822   C     0.38315   0.27261   0.98058   0.00000  Uiso   1.00
C823   C     0.37984   0.27411   0.72904   0.00000  Uiso   1.00
C824   C     0.34398   0.25561   0.73234   0.00000  Uiso   1.00
C825   C     0.39903   0.23613   0.65701   0.00000  Uiso   1.00
C826   C     0.44506   0.28759   0.69141   0.00000  Uiso   1.00
C827   C     0.40828   0.26436   0.69195   0.00000  Uiso   1.00
C828   C     0.33562   0.23091   0.69399   0.00000  Uiso   1.00
C829   C     0.44447   0.37660   0.56231   0.00000  Uiso   1.00
C830   C     0.30184   0.20636   0.94242   0.00000  Uiso   1.00
C831   C     0.39978   0.24389   0.89915   0.00000  Uiso   1.00
C832   C     0.36526   0.22394   0.90008   0.00000  Uiso   1.00
C833   C     0.44485   0.28963   0.93876   0.00000  Uiso   1.00
C834   C     0.40909   0.26856   0.93880   0.00000  Uiso   1.00
C835   C     0.29861   0.21015   0.69373   0.00000  Uiso   1.00
C836   C     0.33814   0.23040   0.93993   0.00000  Uiso   1.00
C837   C     0.44492   0.38065   0.81754   0.00000  Uiso   1.00
C838   C     0.38392   0.39928   0.77797   0.00000  Uiso   1.00
C839   C     0.36270   0.22053   0.65793   0.00000  Uiso   1.00
C840   C     0.40948   0.39993   0.56070   0.00000  Uiso   1.00
C841   C     0.41055   0.56138   0.47117   0.00000  Uiso   1.00
C842   C     0.34985   0.42355   0.03524   0.00000  Uiso   1.00
C843   C     0.34672   0.58980   0.15541   0.00000  Uiso   1.00
C844   C     0.35067   0.58527   0.40943   0.00000  Uiso   1.00
C845   C     0.30454   0.53770   0.44627   0.00000  Uiso   1.00
C846   C     0.38103   0.40088   0.03142   0.00000  Uiso   1.00
C847   C     0.36975   0.44901   0.35750   0.00000  Uiso   1.00
C848   C     0.37217   0.44980   0.11467   0.00000  Uiso   1.00
C849   C     0.40175   0.57487   0.23673   0.00000  Uiso   1.00
C850   C     0.40606   0.42699   0.10913   0.00000  Uiso   1.00
C851   C     0.34491   0.41108   0.28705   0.00000  Uiso   1.00
C852   C     0.30941   0.47066   0.07531   0.00000  Uiso   1.00
C853   C     0.34403   0.44716   0.07544   0.00000  Uiso   1.00
C854   C     0.37351   0.54503   0.47497   0.00000  Uiso   1.00
C855   C     0.36792   0.55501   0.23296   0.00000  Uiso   1.00
C856   C     0.40478   0.43014   0.36060   0.00000  Uiso   1.00
C857   C     0.30152   0.54472   0.19645   0.00000  Uiso   1.00
C858   C     0.33828   0.56406   0.19524   0.00000  Uiso   1.00
C859   C     0.34372   0.55667   0.44229   0.00000  Uiso   1.00
C860   C     0.30715   0.46380   0.32033   0.00000  Uiso   1.00
C861   C     0.34213   0.43948   0.32035   0.00000  Uiso   1.00
C862   C     0.40959   0.40201   0.06831   0.00000  Uiso   1.00
C863   C     0.41449   0.59198   0.44108   0.00000  Uiso   1.00
C864   C     0.41086   0.40272   0.32233   0.00000  Uiso   1.00
C865   C     0.41265   0.59825   0.19747   0.00000  Uiso   1.00
C866   C     0.39945   0.57576   0.98314   0.00000  Uiso   1.00
C867   C     0.40263   0.42947   0.85616   0.00000  Uiso   1.00
C868   C     0.39607   0.58805   0.73578   0.00000  Uiso   1.00
C869   C     0.29938   0.54696   0.94349   0.00000  Uiso   1.00
C870   C     0.40311   0.42412   0.60055   0.00000  Uiso   1.00
C871   C     0.36970   0.44490   0.60386   0.00000  Uiso   1.00
C872   C     0.36465   0.55814   0.97934   0.00000  Uiso   1.00
C873   C     0.36585   0.44714   0.85603   0.00000  Uiso   1.00
C874   C     0.34085   0.58888   0.65711   0.00000  Uiso   1.00
C875   C     0.36164   0.56665   0.73916   0.00000  Uiso   1.00
C876   C     0.30294   0.46312   0.57132   0.00000  Uiso   1.00
C877   C     0.33929   0.44027   0.57044   0.00000  Uiso   1.00
C878   C     0.41029   0.40376   0.81795   0.00000  Uiso   1.00
C879   C     0.33636   0.56883   0.94383   0.00000  Uiso   1.00
C880   C     0.29931   0.54340   0.70205   0.00000  Uiso   1.00
C881   C     0.33310   0.56850   0.70076   0.00000  Uiso   1.00
C882   C     0.34447   0.41632   0.52898   0.00000  Uiso   1.00
C883   C     0.34659   0.59200   0.90208   0.00000  Uiso   1.00
C884   C     0.30111   0.46190   0.82173   0.00000  Uiso   1.00
C885   C     0.33817   0.44102   0.81738   0.00000  Uiso   1.00
C886   C     0.34744   0.41728   0.77622   0.00000  Uiso   1.00
C887   C     0.41102   0.59920   0.94286   0.00000  Uiso   1.00
C888   C     0.29999   0.79265   0.32627   0.00000  Uiso   1.00
C889   C     0.38550   0.60490   0.15814   0.00000  Uiso   1.00
C890   C     0.44745   0.62028   0.19810   0.00000  Uiso   1.00
C891   C     0.34257   0.73988   0.04518   0.00000  Uiso   1.00
C892   C     0.37815   0.72399   0.03872   0.00000  Uiso   1.00
C893   C     0.33760   0.77019   0.07648   0.00000  Uiso   1.00
C894   C     0.44578   0.71288   0.06814   0.00000  Uiso   1.00
C895   C     0.41158   0.73712   0.06656   0.00000  Uiso   1.00
C896   C     0.40522   0.76506   0.10020   0.00000  Uiso   1.00
C897   C     0.44822   0.61588   0.44218   0.00000  Uiso   1.00
C898   C     0.34221   0.74283   0.29383   0.00000  Uiso   1.00
C899   C     0.37931   0.72618   0.29099   0.00000  Uiso   1.00
C900   C     0.33615   0.77078   0.32813   0.00000  Uiso   1.00
C901   C     0.44594   0.71408   0.32300   0.00000  Uiso   1.00
C902   C     0.40730   0.73233   0.32695   0.00000  Uiso   1.00
C903   C     0.36506   0.78117   0.36104   0.00000  Uiso   1.00
C904   C     0.40004   0.76001   0.36330   0.00000  Uiso   1.00
C905   C     0.36914   0.78206   0.10634   0.00000  Uiso   1.00
C906   C     0.30049   0.78965   0.07666   0.00000  Uiso   1.00
C907   C     0.38547   0.60398   0.41033   0.00000  Uiso   1.00
C908   C     0.30606   0.79451   0.56608   0.00000  Uiso   1.00
C909   C     0.43926   0.63300   0.69498   0.00000  Uiso   1.00
C910   C     0.35092   0.74802   0.52624   0.00000  Uiso   1.00
C911   C     0.38895   0.73219   0.52278   0.00000  Uiso   1.00
C912   C     0.37525   0.61130   0.65531   0.00000  Uiso   1.00
C913   C     0.34481   0.77538   0.56212   0.00000  Uiso   1.00
C914   C     0.45146   0.71416   0.56290   0.00000  Uiso   1.00
C915   C     0.41576   0.73912   0.55893   0.00000  Uiso   1.00
C916   C     0.37409   0.78522   0.59623   0.00000  Uiso   1.00
C917   C     0.41090   0.76841   0.59246   0.00000  Uiso   1.00
C918   C     0.44631   0.62169   0.94405   0.00000  Uiso   1.00
C919   C     0.35712   0.75105   0.78051   0.00000  Uiso   1.00
C920   C     0.39358   0.73577   0.78044   0.00000  Uiso   1.00
C921   C     0.34474   0.77186   0.81985   0.00000  Uiso   1.00
C922   C     0.45239   0.71606   0.82072   0.00000  Uiso   1.00
C923   C     0.41908   0.74075   0.81909   0.00000  Uiso   1.00
C924   C     0.36854   0.77515   0.86271   0.00000  Uiso   1.00
C925   C     0.40514   0.75831   0.86384   0.00000  Uiso   1.00
C926   C     0.38429   0.60536   0.90098   0.00000  Uiso   1.00
C927   C     0.30648   0.79101   0.82187   0.00000  Uiso   1.00
C928   C     0.40158   0.61235   0.69419   0.00000  Uiso   1.00
C929   C     0.35261   0.91743   0.48682   0.00000  Uiso   1.00
C930   C     0.38885   0.93296   0.48833   0.00000  Uiso   1.00
C931   C     0.40935   0.89868   0.21665   0.00000  Uiso   1.00
C932   C     0.37551   0.87848   0.21732   0.00000  Uiso   1.00
C933   C     0.37807   0.94626   0.16791   0.00000  Uiso   1.00
C934   C     0.34326   0.92545   0.16549   0.00000  Uiso   1.00
C935   C     0.44922   0.95366   0.19594   0.00000  Uiso   1.00
C936   C     0.41200   0.93254   0.19261   0.00000  Uiso   1.00
C937   C     0.30381   0.87503   0.19386   0.00000  Uiso   1.00
C938   C     0.34103   0.89278   0.19278   0.00000  Uiso   1.00
C939   C     0.40523   0.90295   0.41151   0.00000  Uiso   1.00
C940   C     0.36994   0.88479   0.41227   0.00000  Uiso   1.00
C941   C     0.45085   0.94891   0.44640   0.00000  Uiso   1.00
C942   C     0.41596   0.92708   0.44944   0.00000  Uiso   1.00
C943   C     0.30406   0.87289   0.44827   0.00000  Uiso   1.00
C944   C     0.34229   0.89340   0.44773   0.00000  Uiso   1.00
C945   C     0.34728   0.91641   0.97976   0.00000  Uiso   1.00
C946   C     0.38411   0.93204   0.73733   0.00000  Uiso   1.00
C947   C     0.34846   0.91331   0.73724   0.00000  Uiso   1.00
C948   C     0.40159   0.90494   0.65740   0.00000  Uiso   1.00
C949   C     0.36654   0.88763   0.65698   0.00000  Uiso   1.00
C950   C     0.44560   0.95488   0.69637   0.00000  Uiso   1.00
C951   C     0.40943   0.93019   0.69564   0.00000  Uiso   1.00
C952   C     0.30311   0.87043   0.69573   0.00000  Uiso   1.00
C953   C     0.33898   0.89123   0.69650   0.00000  Uiso   1.00
C954   C     0.38142   0.93585   0.97827   0.00000  Uiso   1.00
C955   C     0.40752   0.89802   0.91310   0.00000  Uiso   1.00
C956   C     0.37066   0.88007   0.91072   0.00000  Uiso   1.00
C957   C     0.44478   0.95146   0.94340   0.00000  Uiso   1.00
C958   C     0.41205   0.92852   0.94343   0.00000  Uiso   1.00
C959   C     0.30441   0.86762   0.94664   0.00000  Uiso   1.00
C960   C     0.34140   0.88714   0.94730   0.00000  Uiso   1.00
C961   C     0.62167   0.04422   0.09916   0.00000  Uiso   1.00
C962   C     0.65796   0.06198   0.09835   0.00000  Uiso   1.00
C963   C     0.59672   0.08385   0.03377   0.00000  Uiso   1.00
C964   C     0.63425   0.10066   0.03097   0.00000  Uiso   1.00
C965   C     0.55313   0.03559   0.06912   0.00000  Uiso   1.00
C966   C     0.59110   0.05492   0.06769   0.00000  Uiso   1.00
C967   C     0.69970   0.11166   0.06524   0.00000  Uiso   1.00
C968   C     0.66447   0.09134   0.06499   0.00000  Uiso   1.00
C969   C     0.61216   0.05989   0.36295   0.00000  Uiso   1.00
C970   C     0.64953   0.07378   0.35880   0.00000  Uiso   1.00
C971   C     0.59352   0.08873   0.28401   0.00000  Uiso   1.00
C972   C     0.63160   0.10724   0.28404   0.00000  Uiso   1.00
C973   C     0.54828   0.04290   0.32209   0.00000  Uiso   1.00
C974   C     0.58424   0.06574   0.32440   0.00000  Uiso   1.00
C975   C     0.69589   0.12411   0.32018   0.00000  Uiso   1.00
C976   C     0.65978   0.10019   0.32167   0.00000  Uiso   1.00
C977   C     0.62246   0.04524   0.59966   0.00000  Uiso   1.00
C978   C     0.65793   0.06478   0.59859   0.00000  Uiso   1.00
C979   C     0.59613   0.08359   0.53193   0.00000  Uiso   1.00
C980   C     0.63223   0.10103   0.52845   0.00000  Uiso   1.00
C981   C     0.55491   0.03639   0.56922   0.00000  Uiso   1.00
C982   C     0.59167   0.05657   0.56773   0.00000  Uiso   1.00
C983   C     0.69604   0.11766   0.56471   0.00000  Uiso   1.00
C984   C     0.66264   0.09284   0.56128   0.00000  Uiso   1.00
C985   C     0.59820   0.08339   0.86066   0.00000  Uiso   1.00
C986   C     0.63067   0.10569   0.86092   0.00000  Uiso   1.00
C987   C     0.62696   0.04449   0.79797   0.00000  Uiso   1.00
C988   C     0.66047   0.06659   0.79739   0.00000  Uiso   1.00
C989   C     0.55672   0.03348   0.82602   0.00000  Uiso   1.00
C990   C     0.59435   0.05388   0.82821   0.00000  Uiso   1.00
C991   C     0.69769   0.11892   0.82792   0.00000  Uiso   1.00
C992   C     0.66269   0.09741   0.83014   0.00000  Uiso   1.00
C993   C     0.69432   0.20988   0.44701   0.00000  Uiso   1.00
C994   C     0.58850   0.39520   0.06917   0.00000  Uiso   1.00
C995   C     0.59395   0.24611   0.48025   0.00000  Uiso   1.00
C996   C     0.62976   0.22495   0.48263   0.00000  Uiso   1.00
C997   C     0.69725   0.21372   0.18949   0.00000  Uiso   1.00
C998   C     0.61562   0.39219   0.02761   0.00000  Uiso   1.00
C999   C     0.62347   0.38629   0.27754   0.00000  Uiso   1.00
C1000  C     0.59419   0.39276   0.31396   0.00000  Uiso   1.00
C1001  C     0.65416   0.25980   0.14957   0.00000  Uiso   1.00
C1002  C     0.61690   0.27716   0.14746   0.00000  Uiso   1.00
C1003  C     0.66143   0.23456   0.18908   0.00000  Uiso   1.00
C1004  C     0.55287   0.29232   0.18635   0.00000  Uiso   1.00
C1005  C     0.58953   0.27123   0.18648   0.00000  Uiso   1.00
C1006  C     0.63250   0.22767   0.22634   0.00000  Uiso   1.00
C1007  C     0.59690   0.24424   0.22390   0.00000  Uiso   1.00
C1008  C     0.55234   0.37412   0.06673   0.00000  Uiso   1.00
C1009  C     0.65712   0.26229   0.41457   0.00000  Uiso   1.00
C1010  C     0.62304   0.28203   0.41617   0.00000  Uiso   1.00
C1011  C     0.66095   0.23265   0.44928   0.00000  Uiso   1.00
C1012  C     0.55634   0.29754   0.44237   0.00000  Uiso   1.00
C1013  C     0.59143   0.27422   0.44491   0.00000  Uiso   1.00
C1014  C     0.55848   0.37065   0.31331   0.00000  Uiso   1.00
C1015  C     0.59963   0.24916   0.98224   0.00000  Uiso   1.00
C1016  C     0.69978   0.21534   0.94469   0.00000  Uiso   1.00
C1017  C     0.59334   0.39041   0.57564   0.00000  Uiso   1.00
C1018  C     0.63276   0.23385   0.74260   0.00000  Uiso   1.00
C1019  C     0.59727   0.25221   0.73724   0.00000  Uiso   1.00
C1020  C     0.54966   0.37747   0.81259   0.00000  Uiso   1.00
C1021  C     0.65919   0.23289   0.70162   0.00000  Uiso   1.00
C1022  C     0.55328   0.29368   0.69254   0.00000  Uiso   1.00
C1023  C     0.58977   0.27173   0.69418   0.00000  Uiso   1.00
C1024  C     0.65088   0.25306   0.65805   0.00000  Uiso   1.00
C1025  C     0.61729   0.27207   0.65514   0.00000  Uiso   1.00
C1026  C     0.55407   0.37268   0.57283   0.00000  Uiso   1.00
C1027  C     0.61780   0.39079   0.78272   0.00000  Uiso   1.00
C1028  C     0.65563   0.26289   0.90931   0.00000  Uiso   1.00
C1029  C     0.61953   0.28031   0.90709   0.00000  Uiso   1.00
C1030  C     0.66244   0.23611   0.94360   0.00000  Uiso   1.00
C1031  C     0.55407   0.29607   0.94098   0.00000  Uiso   1.00
C1032  C     0.59078   0.27422   0.94272   0.00000  Uiso   1.00
C1033  C     0.63463   0.23034   0.98189   0.00000  Uiso   1.00
C1034  C     0.61979   0.38392   0.53743   0.00000  Uiso   1.00
C1035  C     0.69349   0.20950   0.70008   0.00000  Uiso   1.00
C1036  C     0.58638   0.39981   0.81419   0.00000  Uiso   1.00
C1037  C     0.62933   0.56045   0.48548   0.00000  Uiso   1.00
C1038  C     0.66541   0.43066   0.32325   0.00000  Uiso   1.00
C1039  C     0.69952   0.45546   0.32332   0.00000  Uiso   1.00
C1040  C     0.60042   0.41727   0.35451   0.00000  Uiso   1.00
C1041  C     0.69289   0.54457   0.19951   0.00000  Uiso   1.00
C1042  C     0.65631   0.56537   0.19720   0.00000  Uiso   1.00
C1043  C     0.62590   0.55550   0.23131   0.00000  Uiso   1.00
C1044  C     0.63183   0.43969   0.10879   0.00000  Uiso   1.00
C1045  C     0.59150   0.57625   0.23096   0.00000  Uiso   1.00
C1046  C     0.69698   0.45355   0.06979   0.00000  Uiso   1.00
C1047  C     0.66009   0.43409   0.07024   0.00000  Uiso   1.00
C1048  C     0.63518   0.43545   0.36117   0.00000  Uiso   1.00
C1049  C     0.69595   0.54331   0.44918   0.00000  Uiso   1.00
C1050  C     0.65876   0.56348   0.44810   0.00000  Uiso   1.00
C1051  C     0.59508   0.42216   0.10691   0.00000  Uiso   1.00
C1052  C     0.65071   0.58281   0.40414   0.00000  Uiso   1.00
C1053  C     0.59338   0.57752   0.48079   0.00000  Uiso   1.00
C1054  C     0.65245   0.59419   0.16192   0.00000  Uiso   1.00
C1055  C     0.65091   0.41152   0.02732   0.00000  Uiso   1.00
C1056  C     0.65873   0.40553   0.28370   0.00000  Uiso   1.00
C1057  C     0.59106   0.42904   0.84731   0.00000  Uiso   1.00
C1058  C     0.69458   0.54554   0.69563   0.00000  Uiso   1.00
C1059  C     0.65817   0.56709   0.69385   0.00000  Uiso   1.00
C1060  C     0.64942   0.58894   0.65212   0.00000  Uiso   1.00
C1061  C     0.62829   0.55818   0.72886   0.00000  Uiso   1.00
C1062  C     0.64225   0.43174   0.61542   0.00000  Uiso   1.00
C1063  C     0.59331   0.57596   0.72588   0.00000  Uiso   1.00
C1064  C     0.70464   0.44765   0.57555   0.00000  Uiso   1.00
C1065  C     0.67004   0.42528   0.57698   0.00000  Uiso   1.00
C1066  C     0.70121   0.55365   0.94900   0.00000  Uiso   1.00
C1067  C     0.66696   0.57671   0.95148   0.00000  Uiso   1.00
C1068  C     0.65305   0.40976   0.78133   0.00000  Uiso   1.00
C1069  C     0.59906   0.57948   0.97843   0.00000  Uiso   1.00
C1070  C     0.62747   0.44645   0.84946   0.00000  Uiso   1.00
C1071  C     0.69484   0.45919   0.82221   0.00000  Uiso   1.00
C1072  C     0.65971   0.43669   0.81863   0.00000  Uiso   1.00
C1073  C     0.60404   0.41601   0.61306   0.00000  Uiso   1.00
C1074  C     0.63629   0.56558   0.98194   0.00000  Uiso   1.00
C1075  C     0.65702   0.40188   0.53886   0.00000  Uiso   1.00
C1076  C     0.61779   0.60368   0.40034   0.00000  Uiso   1.00
C1077  C     0.58810   0.60514   0.19463   0.00000  Uiso   1.00
C1078  C     0.69528   0.79084   0.32137   0.00000  Uiso   1.00
C1079  C     0.63131   0.77456   0.28434   0.00000  Uiso   1.00
C1080  C     0.55315   0.62986   0.19481   0.00000  Uiso   1.00
C1081  C     0.61776   0.72347   0.11766   0.00000  Uiso   1.00
C1082  C     0.65456   0.73904   0.11526   0.00000  Uiso   1.00
C1083  C     0.59983   0.75211   0.03875   0.00000  Uiso   1.00
C1084  C     0.63432   0.77030   0.03872   0.00000  Uiso   1.00
C1085  C     0.55461   0.70582   0.07808   0.00000  Uiso   1.00
C1086  C     0.59108   0.72761   0.07830   0.00000  Uiso   1.00
C1087  C     0.69869   0.78847   0.07587   0.00000  Uiso   1.00
C1088  C     0.66330   0.76397   0.07617   0.00000  Uiso   1.00
C1089  C     0.55511   0.62766   0.44091   0.00000  Uiso   1.00
C1090  C     0.61699   0.72398   0.35940   0.00000  Uiso   1.00
C1091  C     0.65215   0.74072   0.35660   0.00000  Uiso   1.00
C1092  C     0.59601   0.75479   0.28408   0.00000  Uiso   1.00
C1093  C     0.61833   0.61395   0.15991   0.00000  Uiso   1.00
C1094  C     0.55144   0.70819   0.32064   0.00000  Uiso   1.00
C1095  C     0.58767   0.72943   0.32203   0.00000  Uiso   1.00
C1096  C     0.65858   0.76819   0.32115   0.00000  Uiso   1.00
C1097  C     0.58882   0.60219   0.43964   0.00000  Uiso   1.00
C1098  C     0.61239   0.60483   0.64826   0.00000  Uiso   1.00
C1099  C     0.70199   0.78466   0.56482   0.00000  Uiso   1.00
C1100  C     0.69634   0.78751   0.82582   0.00000  Uiso   1.00
C1101  C     0.63921   0.76898   0.52494   0.00000  Uiso   1.00
C1102  C     0.54907   0.62385   0.68871   0.00000  Uiso   1.00
C1103  C     0.62457   0.71384   0.59470   0.00000  Uiso   1.00
C1104  C     0.65999   0.73141   0.59496   0.00000  Uiso   1.00
C1105  C     0.60345   0.75025   0.52281   0.00000  Uiso   1.00
C1106  C     0.55583   0.70489   0.56373   0.00000  Uiso   1.00
C1107  C     0.59458   0.72284   0.55858   0.00000  Uiso   1.00
C1108  C     0.66722   0.75972   0.55956   0.00000  Uiso   1.00
C1109  C     0.55389   0.62727   0.94374   0.00000  Uiso   1.00
C1110  C     0.59231   0.75433   0.84817   0.00000  Uiso   1.00
C1111  C     0.62449   0.77732   0.84544   0.00000  Uiso   1.00
C1112  C     0.62814   0.71060   0.79720   0.00000  Uiso   1.00
C1113  C     0.66303   0.72910   0.80252   0.00000  Uiso   1.00
C1114  C     0.55681   0.70076   0.81974   0.00000  Uiso   1.00
C1115  C     0.59322   0.72217   0.82252   0.00000  Uiso   1.00
C1116  C     0.66151   0.76450   0.82532   0.00000  Uiso   1.00
C1117  C     0.62180   0.61750   0.91152   0.00000  Uiso   1.00
C1118  C     0.59086   0.60607   0.94400   0.00000  Uiso   1.00
C1119  C     0.65911   0.60329   0.91513   0.00000  Uiso   1.00
C1120  C     0.58465   0.60019   0.68611   0.00000  Uiso   1.00
C1121  C     0.63245   0.89487   0.47870   0.00000  Uiso   1.00
C1122  C     0.62526   0.88874   0.17887   0.00000  Uiso   1.00
C1123  C     0.59121   0.91034   0.18184   0.00000  Uiso   1.00
C1124  C     0.69514   0.88024   0.19666   0.00000  Uiso   1.00
C1125  C     0.66026   0.90173   0.19979   0.00000  Uiso   1.00
C1126  C     0.55587   0.96838   0.19980   0.00000  Uiso   1.00
C1127  C     0.59153   0.94487   0.20291   0.00000  Uiso   1.00
C1128  C     0.65982   0.93459   0.22819   0.00000  Uiso   1.00
C1129  C     0.62671   0.95735   0.22767   0.00000  Uiso   1.00
C1130  C     0.65674   0.93268   0.40867   0.00000  Uiso   1.00
C1131  C     0.62186   0.95122   0.40802   0.00000  Uiso   1.00
C1132  C     0.69723   0.88046   0.44359   0.00000  Uiso   1.00
C1133  C     0.66225   0.90454   0.44533   0.00000  Uiso   1.00
C1134  C     0.55485   0.96320   0.44241   0.00000  Uiso   1.00
C1135  C     0.58997   0.94175   0.44132   0.00000  Uiso   1.00
C1136  C     0.59618   0.91303   0.47762   0.00000  Uiso   1.00
C1137  C     0.63305   0.89634   0.98519   0.00000  Uiso   1.00
C1138  C     0.64938   0.92277   0.65164   0.00000  Uiso   1.00
C1139  C     0.61289   0.94039   0.65351   0.00000  Uiso   1.00
C1140  C     0.69652   0.87826   0.69376   0.00000  Uiso   1.00
C1141  C     0.66038   0.90067   0.69264   0.00000  Uiso   1.00
C1142  C     0.55145   0.95788   0.69494   0.00000  Uiso   1.00
C1143  C     0.58797   0.93610   0.69290   0.00000  Uiso   1.00
C1144  C     0.63390   0.89523   0.73393   0.00000  Uiso   1.00
C1145  C     0.59723   0.91310   0.73252   0.00000  Uiso   1.00
C1146  C     0.65161   0.92937   0.90951   0.00000  Uiso   1.00
C1147  C     0.61486   0.94499   0.90722   0.00000  Uiso   1.00
C1148  C     0.69588   0.88130   0.94551   0.00000  Uiso   1.00
C1149  C     0.66145   0.90544   0.94818   0.00000  Uiso   1.00
C1150  C     0.54822   0.95678   0.94433   0.00000  Uiso   1.00
C1151  C     0.58608   0.93718   0.94493   0.00000  Uiso   1.00
C1152  C     0.59514   0.91115   0.98325   0.00000  Uiso   1.00
C1153  C     0.85241   0.08200   0.02454   0.00000  Uiso   1.00
C1154  C     0.88853   0.06295   0.02983   0.00000  Uiso   1.00
C1155  C     0.80194   0.12247   0.06739   0.00000  Uiso   1.00
C1156  C     0.84056   0.10370   0.06460   0.00000  Uiso   1.00
C1157  C     0.94736   0.04319   0.07418   0.00000  Uiso   1.00
C1158  C     0.91348   0.06890   0.06981   0.00000  Uiso   1.00
C1159  C     0.86594   0.11107   0.10685   0.00000  Uiso   1.00
C1160  C     0.90260   0.09430   0.11025   0.00000  Uiso   1.00
C1161  C     0.88137   0.13066   0.30155   0.00000  Uiso   1.00
C1162  C     0.91559   0.10972   0.30254   0.00000  Uiso   1.00
C1163  C     0.80911   0.13552   0.31663   0.00000  Uiso   1.00
C1164  C     0.84519   0.11487   0.31712   0.00000  Uiso   1.00
C1165  C     0.94753   0.05038   0.32678   0.00000  Uiso   1.00
C1166  C     0.91454   0.07559   0.32771   0.00000  Uiso   1.00
C1167  C     0.84481   0.07882   0.33508   0.00000  Uiso   1.00
C1168  C     0.87936   0.06144   0.34198   0.00000  Uiso   1.00
C1169  C     0.84326   0.07308   0.54332   0.00000  Uiso   1.00
C1170  C     0.87966   0.05705   0.54066   0.00000  Uiso   1.00
C1171  C     0.79954   0.12146   0.57606   0.00000  Uiso   1.00
C1172  C     0.83408   0.09878   0.57936   0.00000  Uiso   1.00
C1173  C     0.94739   0.04374   0.57906   0.00000  Uiso   1.00
C1174  C     0.90848   0.06466   0.57861   0.00000  Uiso   1.00
C1175  C     0.86110   0.10850   0.61585   0.00000  Uiso   1.00
C1176  C     0.89873   0.09009   0.61519   0.00000  Uiso   1.00
C1177  C     0.85196   0.08089   0.78240   0.00000  Uiso   1.00
C1178  C     0.89001   0.06672   0.77948   0.00000  Uiso   1.00
C1179  C     0.80633   0.12642   0.82158   0.00000  Uiso   1.00
C1180  C     0.84408   0.10680   0.82030   0.00000  Uiso   1.00
C1181  C     0.95160   0.04859   0.82049   0.00000  Uiso   1.00
C1182  C     0.91820   0.07353   0.81671   0.00000  Uiso   1.00
C1183  C     0.87318   0.11438   0.85865   0.00000  Uiso   1.00
C1184  C     0.90906   0.09874   0.85500   0.00000  Uiso   1.00
C1185  C     0.87937   0.27578   0.21714   0.00000  Uiso   1.00
C1186  C     0.84156   0.25719   0.21753   0.00000  Uiso   1.00
C1187  C     0.90365   0.23622   0.15025   0.00000  Uiso   1.00
C1188  C     0.86735   0.21744   0.15155   0.00000  Uiso   1.00
C1189  C     0.94625   0.28764   0.18653   0.00000  Uiso   1.00
C1190  C     0.90930   0.26436   0.18504   0.00000  Uiso   1.00
C1191  C     0.83815   0.22493   0.18759   0.00000  Uiso   1.00
C1192  C     0.94966   0.38510   0.06786   0.00000  Uiso   1.00
C1193  C     0.90744   0.23680   0.47634   0.00000  Uiso   1.00
C1194  C     0.87689   0.27586   0.41562   0.00000  Uiso   1.00
C1195  C     0.84165   0.25752   0.42211   0.00000  Uiso   1.00
C1196  C     0.94435   0.29055   0.44533   0.00000  Uiso   1.00
C1197  C     0.90947   0.26799   0.44461   0.00000  Uiso   1.00
C1198  C     0.84240   0.22500   0.44789   0.00000  Uiso   1.00
C1199  C     0.94855   0.38001   0.31645   0.00000  Uiso   1.00
C1200  C     0.87406   0.21373   0.47712   0.00000  Uiso   1.00
C1201  C     0.80006   0.20504   0.18819   0.00000  Uiso   1.00
C1202  C     0.88402   0.39423   0.28540   0.00000  Uiso   1.00
C1203  C     0.80497   0.20325   0.44703   0.00000  Uiso   1.00
C1204  C     0.88357   0.27178   0.98940   0.00000  Uiso   1.00
C1205  C     0.84809   0.25271   0.99000   0.00000  Uiso   1.00
C1206  C     0.80358   0.20466   0.95151   0.00000  Uiso   1.00
C1207  C     0.88494   0.26939   0.72890   0.00000  Uiso   1.00
C1208  C     0.84787   0.25376   0.72628   0.00000  Uiso   1.00
C1209  C     0.90589   0.23264   0.66039   0.00000  Uiso   1.00
C1210  C     0.94979   0.28223   0.69630   0.00000  Uiso   1.00
C1211  C     0.91502   0.25988   0.69653   0.00000  Uiso   1.00
C1212  C     0.86781   0.21772   0.91632   0.00000  Uiso   1.00
C1213  C     0.84039   0.22700   0.68981   0.00000  Uiso   1.00
C1214  C     0.94824   0.37879   0.57320   0.00000  Uiso   1.00
C1215  C     0.86836   0.21860   0.65275   0.00000  Uiso   1.00
C1216  C     0.90558   0.23306   0.92033   0.00000  Uiso   1.00
C1217  C     0.94910   0.28207   0.95020   0.00000  Uiso   1.00
C1218  C     0.91181   0.26207   0.95339   0.00000  Uiso   1.00
C1219  C     0.83969   0.22600   0.95088   0.00000  Uiso   1.00
C1220  C     0.94817   0.38196   0.82237   0.00000  Uiso   1.00
C1221  C     0.88214   0.39313   0.78890   0.00000  Uiso   1.00
C1222  C     0.80370   0.20251   0.69237   0.00000  Uiso   1.00
C1223  C     0.88284   0.39756   0.53534   0.00000  Uiso   1.00
C1224  C     0.85517   0.57955   0.49260   0.00000  Uiso   1.00
C1225  C     0.91254   0.40203   0.31955   0.00000  Uiso   1.00
C1226  C     0.80582   0.53813   0.45182   0.00000  Uiso   1.00
C1227  C     0.90719   0.42851   0.35766   0.00000  Uiso   1.00
C1228  C     0.84338   0.55853   0.45181   0.00000  Uiso   1.00
C1229  C     0.86797   0.55389   0.40981   0.00000  Uiso   1.00
C1230  C     0.89799   0.42500   0.11210   0.00000  Uiso   1.00
C1231  C     0.84155   0.59592   0.22788   0.00000  Uiso   1.00
C1232  C     0.90425   0.57207   0.40807   0.00000  Uiso   1.00
C1233  C     0.85964   0.43822   0.11383   0.00000  Uiso   1.00
C1234  C     0.80014   0.45698   0.07230   0.00000  Uiso   1.00
C1235  C     0.83373   0.43387   0.07223   0.00000  Uiso   1.00
C1236  C     0.90786   0.57031   0.17856   0.00000  Uiso   1.00
C1237  C     0.87143   0.55190   0.17553   0.00000  Uiso   1.00
C1238  C     0.84729   0.41596   0.02925   0.00000  Uiso   1.00
C1239  C     0.80177   0.54190   0.19935   0.00000  Uiso   1.00
C1240  C     0.83948   0.56230   0.20386   0.00000  Uiso   1.00
C1241  C     0.84954   0.41523   0.28320   0.00000  Uiso   1.00
C1242  C     0.80537   0.46300   0.32007   0.00000  Uiso   1.00
C1243  C     0.84311   0.44221   0.32072   0.00000  Uiso   1.00
C1244  C     0.87189   0.44893   0.35896   0.00000  Uiso   1.00
C1245  C     0.91696   0.59319   0.44864   0.00000  Uiso   1.00
C1246  C     0.89196   0.59644   0.49174   0.00000  Uiso   1.00
C1247  C     0.91261   0.40713   0.06857   0.00000  Uiso   1.00
C1248  C     0.88642   0.40257   0.02862   0.00000  Uiso   1.00
C1249  C     0.89992   0.57393   0.65948   0.00000  Uiso   1.00
C1250  C     0.90572   0.43287   0.85787   0.00000  Uiso   1.00
C1251  C     0.84841   0.41782   0.53985   0.00000  Uiso   1.00
C1252  C     0.84386   0.59558   0.73210   0.00000  Uiso   1.00
C1253  C     0.84461   0.59103   0.91745   0.00000  Uiso   1.00
C1254  C     0.90384   0.42183   0.61906   0.00000  Uiso   1.00
C1255  C     0.86922   0.44099   0.62352   0.00000  Uiso   1.00
C1256  C     0.86961   0.44918   0.85869   0.00000  Uiso   1.00
C1257  C     0.80680   0.46267   0.57976   0.00000  Uiso   1.00
C1258  C     0.84308   0.44089   0.58122   0.00000  Uiso   1.00
C1259  C     0.84073   0.56120   0.95022   0.00000  Uiso   1.00
C1260  C     0.80578   0.54034   0.94843   0.00000  Uiso   1.00
C1261  C     0.86205   0.56008   0.65858   0.00000  Uiso   1.00
C1262  C     0.87272   0.55223   0.98194   0.00000  Uiso   1.00
C1263  C     0.79857   0.54723   0.69952   0.00000  Uiso   1.00
C1264  C     0.83505   0.56949   0.69625   0.00000  Uiso   1.00
C1265  C     0.90510   0.57500   0.98233   0.00000  Uiso   1.00
C1266  C     0.91173   0.40423   0.82239   0.00000  Uiso   1.00
C1267  C     0.80217   0.46204   0.82390   0.00000  Uiso   1.00
C1268  C     0.83930   0.44061   0.82376   0.00000  Uiso   1.00
C1269  C     0.91015   0.59990   0.69812   0.00000  Uiso   1.00
C1270  C     0.84551   0.41203   0.78919   0.00000  Uiso   1.00
C1271  C     0.91132   0.40033   0.57488   0.00000  Uiso   1.00
C1272  C     0.90932   0.60416   0.20548   0.00000  Uiso   1.00
C1273  C     0.94290   0.62766   0.20110   0.00000  Uiso   1.00
C1274  C     0.85652   0.75866   0.02332   0.00000  Uiso   1.00
C1275  C     0.89153   0.73761   0.02826   0.00000  Uiso   1.00
C1276  C     0.84282   0.77839   0.06663   0.00000  Uiso   1.00
C1277  C     0.94987   0.71608   0.07287   0.00000  Uiso   1.00
C1278  C     0.91458   0.73983   0.07210   0.00000  Uiso   1.00
C1279  C     0.86842   0.77993   0.10827   0.00000  Uiso   1.00
C1280  C     0.90557   0.76305   0.11049   0.00000  Uiso   1.00
C1281  C     0.95269   0.61723   0.44627   0.00000  Uiso   1.00
C1282  C     0.84911   0.74483   0.28491   0.00000  Uiso   1.00
C1283  C     0.88719   0.72881   0.28463   0.00000  Uiso   1.00
C1284  C     0.83950   0.76978   0.32319   0.00000  Uiso   1.00
C1285  C     0.95201   0.71939   0.32433   0.00000  Uiso   1.00
C1286  C     0.91433   0.73871   0.32318   0.00000  Uiso   1.00
C1287  C     0.86515   0.77625   0.36402   0.00000  Uiso   1.00
C1288  C     0.90268   0.76243   0.36205   0.00000  Uiso   1.00
C1289  C     0.80524   0.79887   0.06911   0.00000  Uiso   1.00
C1290  C     0.87532   0.61527   0.23340   0.00000  Uiso   1.00
C1291  C     0.80333   0.79277   0.32108   0.00000  Uiso   1.00
C1292  C     0.94862   0.61808   0.69548   0.00000  Uiso   1.00
C1293  C     0.86971   0.78142   0.85763   0.00000  Uiso   1.00
C1294  C     0.91224   0.76361   0.54397   0.00000  Uiso   1.00
C1295  C     0.87892   0.78568   0.54199   0.00000  Uiso   1.00
C1296  C     0.84539   0.77935   0.57168   0.00000  Uiso   1.00
C1297  C     0.94756   0.70797   0.57283   0.00000  Uiso   1.00
C1298  C     0.91283   0.73198   0.57199   0.00000  Uiso   1.00
C1299  C     0.84518   0.74619   0.59826   0.00000  Uiso   1.00
C1300  C     0.87806   0.72255   0.59831   0.00000  Uiso   1.00
C1301  C     0.94468   0.62615   0.94850   0.00000  Uiso   1.00
C1302  C     0.84448   0.74293   0.79181   0.00000  Uiso   1.00
C1303  C     0.88089   0.72694   0.78797   0.00000  Uiso   1.00
C1304  C     0.83980   0.77154   0.82746   0.00000  Uiso   1.00
C1305  C     0.94541   0.71310   0.81922   0.00000  Uiso   1.00
C1306  C     0.91062   0.73612   0.81906   0.00000  Uiso   1.00
C1307  C     0.90663   0.76502   0.85422   0.00000  Uiso   1.00
C1308  C     0.87842   0.61267   0.91444   0.00000  Uiso   1.00
C1309  C     0.90896   0.60387   0.94727   0.00000  Uiso   1.00
C1310  C     0.88095   0.61094   0.73257   0.00000  Uiso   1.00
C1311  C     0.80388   0.79406   0.82695   0.00000  Uiso   1.00
C1312  C     0.84705   0.92326   0.48370   0.00000  Uiso   1.00
C1313  C     0.88151   0.94264   0.23556   0.00000  Uiso   1.00
C1314  C     0.84550   0.92426   0.23511   0.00000  Uiso   1.00
C1315  C     0.90004   0.91021   0.15851   0.00000  Uiso   1.00
C1316  C     0.86415   0.89309   0.15832   0.00000  Uiso   1.00
C1317  C     0.94573   0.95533   0.20220   0.00000  Uiso   1.00
C1318  C     0.90989   0.93388   0.19984   0.00000  Uiso   1.00
C1319  C     0.80022   0.87725   0.20044   0.00000  Uiso   1.00
C1320  C     0.83668   0.89825   0.19697   0.00000  Uiso   1.00
C1321  C     0.90300   0.90580   0.40835   0.00000  Uiso   1.00
C1322  C     0.86603   0.89021   0.40797   0.00000  Uiso   1.00
C1323  C     0.94997   0.95322   0.44694   0.00000  Uiso   1.00
C1324  C     0.91224   0.93222   0.44534   0.00000  Uiso   1.00
C1325  C     0.80207   0.87663   0.44778   0.00000  Uiso   1.00
C1326  C     0.83742   0.89771   0.44555   0.00000  Uiso   1.00
C1327  C     0.88280   0.94159   0.48109   0.00000  Uiso   1.00
C1328  C     0.84665   0.92216   0.99154   0.00000  Uiso   1.00
C1329  C     0.88300   0.93808   0.73632   0.00000  Uiso   1.00
C1330  C     0.84771   0.91757   0.73860   0.00000  Uiso   1.00
C1331  C     0.90799   0.89955   0.66783   0.00000  Uiso   1.00
C1332  C     0.87263   0.87922   0.66995   0.00000  Uiso   1.00
C1333  C     0.94746   0.95356   0.70039   0.00000  Uiso   1.00
C1334  C     0.91264   0.93011   0.70141   0.00000  Uiso   1.00
C1335  C     0.80404   0.86979   0.69988   0.00000  Uiso   1.00
C1336  C     0.84181   0.88908   0.70242   0.00000  Uiso   1.00
C1337  C     0.89987   0.90858   0.91105   0.00000  Uiso   1.00
C1338  C     0.86250   0.89476   0.90940   0.00000  Uiso   1.00
C1339  C     0.94766   0.95030   0.95131   0.00000  Uiso   1.00
C1340  C     0.91054   0.93029   0.95279   0.00000  Uiso   1.00
C1341  C     0.80065   0.87681   0.94992   0.00000  Uiso   1.00
C1342  C     0.83803   0.89705   0.95121   0.00000  Uiso   1.00
C1343  C     0.88345   0.93882   0.99186   0.00000  Uiso   1.00
C1344  C     0.80877   0.80102   0.57044   0.00000  Uiso   1.00
O1345  O     0.21629   0.12895   0.27341   0.00000  Uiso   1.00
O1346  O     0.03868   0.02952   0.27738   0.00000  Uiso   1.00
O1347  O     0.20875   0.13694   0.35934   0.00000  Uiso   1.00
O1348  O     0.21031   0.13153   0.11185   0.00000  Uiso   1.00
O1349  O     0.04097   0.02341   0.11790   0.00000  Uiso   1.00
O1350  O     0.03638   0.03320   0.36719   0.00000  Uiso   1.00
O1351  O     0.20927   0.13567   0.02434   0.00000  Uiso   1.00
O1352  O     0.04279   0.02106   0.02932   0.00000  Uiso   1.00
O1353  O     0.20616   0.19631   0.48864   0.00000  Uiso   1.00
O1354  O     0.21124   0.13279   0.77740   0.00000  Uiso   1.00
O1355  O     0.03996   0.02829   0.78345   0.00000  Uiso   1.00
O1356  O     0.21166   0.13151   0.86323   0.00000  Uiso   1.00
O1357  O     0.03900   0.02989   0.87321   0.00000  Uiso   1.00
O1358  O     0.21115   0.12987   0.61370   0.00000  Uiso   1.00
O1359  O     0.03996   0.02509   0.61864   0.00000  Uiso   1.00
O1360  O     0.21280   0.12723   0.52506   0.00000  Uiso   1.00
O1361  O     0.03884   0.02612   0.53029   0.00000  Uiso   1.00
O1362  O     0.21011   0.19924   0.64568   0.00000  Uiso   1.00
O1363  O     0.04030   0.35664   0.27156   0.00000  Uiso   1.00
O1364  O     0.04352   0.35603   0.36162   0.00000  Uiso   1.00
O1365  O     0.21623   0.20672   0.40193   0.00000  Uiso   1.00
O1366  O     0.03497   0.29934   0.39810   0.00000  Uiso   1.00
O1367  O     0.03915   0.36619   0.02335   0.00000  Uiso   1.00
O1368  O     0.04153   0.36380   0.11165   0.00000  Uiso   1.00
O1369  O     0.03251   0.29949   0.23314   0.00000  Uiso   1.00
O1370  O     0.04008   0.30208   0.48372   0.00000  Uiso   1.00
O1371  O     0.04222   0.31012   0.14718   0.00000  Uiso   1.00
O1372  O     0.21741   0.20677   0.23722   0.00000  Uiso   1.00
O1373  O     0.21063   0.20412   0.14833   0.00000  Uiso   1.00
O1374  O     0.03822   0.36318   0.77767   0.00000  Uiso   1.00
O1375  O     0.03782   0.35843   0.86521   0.00000  Uiso   1.00
O1376  O     0.03831   0.36063   0.61452   0.00000  Uiso   1.00
O1377  O     0.03658   0.30052   0.89916   0.00000  Uiso   1.00
O1378  O     0.04134   0.30738   0.98655   0.00000  Uiso   1.00
O1379  O     0.04142   0.35428   0.52675   0.00000  Uiso   1.00
O1380  O     0.04284   0.30776   0.74085   0.00000  Uiso   1.00
O1381  O     0.03619   0.29547   0.65411   0.00000  Uiso   1.00
O1382  O     0.21249   0.20249   0.73385   0.00000  Uiso   1.00
O1383  O     0.21415   0.20602   0.98816   0.00000  Uiso   1.00
O1384  O     0.20825   0.20041   0.90006   0.00000  Uiso   1.00
O1385  O     0.21353   0.46665   0.27584   0.00000  Uiso   1.00
O1386  O     0.21141   0.54063   0.15819   0.00000  Uiso   1.00
O1387  O     0.21647   0.54201   0.24723   0.00000  Uiso   1.00
O1388  O     0.20980   0.53315   0.40275   0.00000  Uiso   1.00
O1389  O     0.21339   0.46111   0.36319   0.00000  Uiso   1.00
O1390  O     0.20851   0.47030   0.11713   0.00000  Uiso   1.00
O1391  O     0.21816   0.46324   0.02899   0.00000  Uiso   1.00
O1392  O     0.21205   0.53736   0.49280   0.00000  Uiso   1.00
O1393  O     0.20574   0.46858   0.77937   0.00000  Uiso   1.00
O1394  O     0.21001   0.53227   0.90434   0.00000  Uiso   1.00
O1395  O     0.20764   0.53832   0.73793   0.00000  Uiso   1.00
O1396  O     0.21081   0.46293   0.53026   0.00000  Uiso   1.00
O1397  O     0.21363   0.46396   0.86561   0.00000  Uiso   1.00
O1398  O     0.20974   0.53753   0.65167   0.00000  Uiso   1.00
O1399  O     0.21022   0.46657   0.61861   0.00000  Uiso   1.00
O1400  O     0.20412   0.52815   0.99093   0.00000  Uiso   1.00
O1401  O     0.04138   0.63717   0.40147   0.00000  Uiso   1.00
O1402  O     0.03786   0.70364   0.28150   0.00000  Uiso   1.00
O1403  O     0.04375   0.68774   0.03017   0.00000  Uiso   1.00
O1404  O     0.04505   0.63973   0.49162   0.00000  Uiso   1.00
O1405  O     0.03934   0.69627   0.36808   0.00000  Uiso   1.00
O1406  O     0.03562   0.63540   0.16100   0.00000  Uiso   1.00
O1407  O     0.04190   0.64676   0.24561   0.00000  Uiso   1.00
O1408  O     0.04108   0.69560   0.11719   0.00000  Uiso   1.00
O1409  O     0.21247   0.79239   0.03071   0.00000  Uiso   1.00
O1410  O     0.04004   0.63978   0.90363   0.00000  Uiso   1.00
O1411  O     0.04332   0.69079   0.77558   0.00000  Uiso   1.00
O1412  O     0.03885   0.69813   0.52947   0.00000  Uiso   1.00
O1413  O     0.21115   0.79800   0.61369   0.00000  Uiso   1.00
O1414  O     0.03487   0.63144   0.99195   0.00000  Uiso   1.00
O1415  O     0.04163   0.69717   0.86232   0.00000  Uiso   1.00
O1416  O     0.03991   0.63664   0.65148   0.00000  Uiso   1.00
O1417  O     0.03711   0.63348   0.73967   0.00000  Uiso   1.00
O1418  O     0.03842   0.69572   0.61821   0.00000  Uiso   1.00
O1419  O     0.21756   0.78957   0.77854   0.00000  Uiso   1.00
O1420  O     0.21261   0.79259   0.86635   0.00000  Uiso   1.00
O1421  O     0.21137   0.79429   0.52618   0.00000  Uiso   1.00
O1422  O     0.20821   0.80351   0.11779   0.00000  Uiso   1.00
O1423  O     0.20714   0.86455   0.48842   0.00000  Uiso   1.00
O1424  O     0.04258   0.97617   0.49393   0.00000  Uiso   1.00
O1425  O     0.03440   0.96477   0.15361   0.00000  Uiso   1.00
O1426  O     0.21013   0.86937   0.15539   0.00000  Uiso   1.00
O1427  O     0.03295   0.96730   0.24273   0.00000  Uiso   1.00
O1428  O     0.20763   0.86558   0.24316   0.00000  Uiso   1.00
O1429  O     0.03871   0.97812   0.40821   0.00000  Uiso   1.00
O1430  O     0.21424   0.87503   0.40245   0.00000  Uiso   1.00
O1431  O     0.20828   0.80492   0.36782   0.00000  Uiso   1.00
O1432  O     0.21006   0.80016   0.27899   0.00000  Uiso   1.00
O1433  O     0.03904   0.96625   0.99117   0.00000  Uiso   1.00
O1434  O     0.03748   0.96577   0.65916   0.00000  Uiso   1.00
O1435  O     0.21456   0.86950   0.65273   0.00000  Uiso   1.00
O1436  O     0.04211   0.97360   0.74562   0.00000  Uiso   1.00
O1437  O     0.21067   0.86263   0.73962   0.00000  Uiso   1.00
O1438  O     0.03787   0.96991   0.90487   0.00000  Uiso   1.00
O1439  O     0.21150   0.86574   0.90119   0.00000  Uiso   1.00
O1440  O     0.21161   0.86440   0.98941   0.00000  Uiso   1.00
O1441  O     0.29337   0.14540   0.27934   0.00000  Uiso   1.00
O1442  O     0.28973   0.13870   0.36488   0.00000  Uiso   1.00
O1443  O     0.45773   0.03928   0.27773   0.00000  Uiso   1.00
O1444  O     0.45699   0.03233   0.36537   0.00000  Uiso   1.00
O1445  O     0.45541   0.03124   0.02891   0.00000  Uiso   1.00
O1446  O     0.28743   0.13973   0.02631   0.00000  Uiso   1.00
O1447  O     0.46662   0.03897   0.11347   0.00000  Uiso   1.00
O1448  O     0.28972   0.14260   0.11390   0.00000  Uiso   1.00
O1449  O     0.29097   0.19487   0.23667   0.00000  Uiso   1.00
O1450  O     0.28947   0.19728   0.40036   0.00000  Uiso   1.00
O1451  O     0.28949   0.19458   0.48689   0.00000  Uiso   1.00
O1452  O     0.28921   0.19715   0.14836   0.00000  Uiso   1.00
O1453  O     0.46397   0.03734   0.86244   0.00000  Uiso   1.00
O1454  O     0.29154   0.13968   0.77361   0.00000  Uiso   1.00
O1455  O     0.28871   0.13824   0.86124   0.00000  Uiso   1.00
O1456  O     0.28573   0.19846   0.64971   0.00000  Uiso   1.00
O1457  O     0.45739   0.02870   0.52270   0.00000  Uiso   1.00
O1458  O     0.28916   0.13451   0.52507   0.00000  Uiso   1.00
O1459  O     0.46613   0.03639   0.61231   0.00000  Uiso   1.00
O1460  O     0.28924   0.13461   0.61450   0.00000  Uiso   1.00
O1461  O     0.46860   0.03941   0.77595   0.00000  Uiso   1.00
O1462  O     0.28614   0.19798   0.73823   0.00000  Uiso   1.00
O1463  O     0.28508   0.19786   0.90006   0.00000  Uiso   1.00
O1464  O     0.29003   0.19556   0.98766   0.00000  Uiso   1.00
O1465  O     0.46471   0.29809   0.39377   0.00000  Uiso   1.00
O1466  O     0.46555   0.37251   0.36220   0.00000  Uiso   1.00
O1467  O     0.46370   0.29889   0.23386   0.00000  Uiso   1.00
O1468  O     0.46837   0.29575   0.48092   0.00000  Uiso   1.00
O1469  O     0.46223   0.29596   0.14493   0.00000  Uiso   1.00
O1470  O     0.45879   0.36731   0.02215   0.00000  Uiso   1.00
O1471  O     0.46017   0.36861   0.11075   0.00000  Uiso   1.00
O1472  O     0.45755   0.36621   0.27538   0.00000  Uiso   1.00
O1473  O     0.45689   0.30083   0.89477   0.00000  Uiso   1.00
O1474  O     0.46213   0.29852   0.98051   0.00000  Uiso   1.00
O1475  O     0.45832   0.37000   0.86115   0.00000  Uiso   1.00
O1476  O     0.45986   0.29712   0.73526   0.00000  Uiso   1.00
O1477  O     0.45862   0.29929   0.64663   0.00000  Uiso   1.00
O1478  O     0.46163   0.36751   0.51899   0.00000  Uiso   1.00
O1479  O     0.45840   0.36659   0.60755   0.00000  Uiso   1.00
O1480  O     0.45764   0.36963   0.77410   0.00000  Uiso   1.00
O1481  O     0.29701   0.48136   0.03168   0.00000  Uiso   1.00
O1482  O     0.29317   0.47305   0.27511   0.00000  Uiso   1.00
O1483  O     0.29032   0.47278   0.36589   0.00000  Uiso   1.00
O1484  O     0.29021   0.47637   0.11995   0.00000  Uiso   1.00
O1485  O     0.28581   0.52928   0.40346   0.00000  Uiso   1.00
O1486  O     0.29048   0.52956   0.49106   0.00000  Uiso   1.00
O1487  O     0.28607   0.53473   0.15272   0.00000  Uiso   1.00
O1488  O     0.28934   0.53064   0.23976   0.00000  Uiso   1.00
O1489  O     0.29058   0.47445   0.86660   0.00000  Uiso   1.00
O1490  O     0.28900   0.47312   0.61649   0.00000  Uiso   1.00
O1491  O     0.28925   0.47289   0.52729   0.00000  Uiso   1.00
O1492  O     0.28344   0.53865   0.98731   0.00000  Uiso   1.00
O1493  O     0.29014   0.53186   0.90028   0.00000  Uiso   1.00
O1494  O     0.28478   0.53485   0.74469   0.00000  Uiso   1.00
O1495  O     0.28679   0.53123   0.65828   0.00000  Uiso   1.00
O1496  O     0.28327   0.47021   0.77896   0.00000  Uiso   1.00
O1497  O     0.45785   0.70181   0.11175   0.00000  Uiso   1.00
O1498  O     0.45954   0.70364   0.36685   0.00000  Uiso   1.00
O1499  O     0.45618   0.70027   0.27853   0.00000  Uiso   1.00
O1500  O     0.45507   0.63420   0.40080   0.00000  Uiso   1.00
O1501  O     0.45860   0.70083   0.02361   0.00000  Uiso   1.00
O1502  O     0.45598   0.63618   0.24252   0.00000  Uiso   1.00
O1503  O     0.46256   0.63194   0.15518   0.00000  Uiso   1.00
O1504  O     0.46659   0.62182   0.48568   0.00000  Uiso   1.00
O1505  O     0.28575   0.79853   0.03258   0.00000  Uiso   1.00
O1506  O     0.45755   0.63281   0.98891   0.00000  Uiso   1.00
O1507  O     0.45897   0.69752   0.86356   0.00000  Uiso   1.00
O1508  O     0.46040   0.63135   0.90000   0.00000  Uiso   1.00
O1509  O     0.47167   0.70978   0.77743   0.00000  Uiso   1.00
O1510  O     0.29056   0.79812   0.77729   0.00000  Uiso   1.00
O1511  O     0.47070   0.70901   0.60612   0.00000  Uiso   1.00
O1512  O     0.45903   0.69481   0.52194   0.00000  Uiso   1.00
O1513  O     0.45217   0.64483   0.73866   0.00000  Uiso   1.00
O1514  O     0.45579   0.64023   0.65115   0.00000  Uiso   1.00
O1515  O     0.28416   0.80117   0.28273   0.00000  Uiso   1.00
O1516  O     0.46428   0.96228   0.15261   0.00000  Uiso   1.00
O1517  O     0.28817   0.86340   0.49157   0.00000  Uiso   1.00
O1518  O     0.46020   0.96118   0.40199   0.00000  Uiso   1.00
O1519  O     0.28887   0.86336   0.40456   0.00000  Uiso   1.00
O1520  O     0.46725   0.95925   0.48813   0.00000  Uiso   1.00
O1521  O     0.28656   0.80527   0.36916   0.00000  Uiso   1.00
O1522  O     0.29036   0.86359   0.23666   0.00000  Uiso   1.00
O1523  O     0.46011   0.96631   0.23967   0.00000  Uiso   1.00
O1524  O     0.28822   0.86798   0.15040   0.00000  Uiso   1.00
O1525  O     0.28761   0.80371   0.12067   0.00000  Uiso   1.00
O1526  O     0.28936   0.85698   0.99137   0.00000  Uiso   1.00
O1527  O     0.28804   0.86191   0.90278   0.00000  Uiso   1.00
O1528  O     0.45675   0.96867   0.65114   0.00000  Uiso   1.00
O1529  O     0.45798   0.96068   0.98916   0.00000  Uiso   1.00
O1530  O     0.29231   0.80723   0.61114   0.00000  Uiso   1.00
O1531  O     0.29129   0.85627   0.74039   0.00000  Uiso   1.00
O1532  O     0.45613   0.96545   0.90018   0.00000  Uiso   1.00
O1533  O     0.45850   0.96580   0.73913   0.00000  Uiso   1.00
O1534  O     0.28737   0.86311   0.65145   0.00000  Uiso   1.00
O1535  O     0.28885   0.80401   0.52266   0.00000  Uiso   1.00
O1536  O     0.29329   0.80641   0.86413   0.00000  Uiso   1.00
O1537  O     0.70517   0.13898   0.27635   0.00000  Uiso   1.00
O1538  O     0.71290   0.13253   0.36451   0.00000  Uiso   1.00
O1539  O     0.71212   0.12433   0.10930   0.00000  Uiso   1.00
O1540  O     0.53361   0.03508   0.27763   0.00000  Uiso   1.00
O1541  O     0.54240   0.02380   0.11377   0.00000  Uiso   1.00
O1542  O     0.53515   0.02932   0.36523   0.00000  Uiso   1.00
O1543  O     0.71020   0.12679   0.02370   0.00000  Uiso   1.00
O1544  O     0.53535   0.02484   0.02844   0.00000  Uiso   1.00
O1545  O     0.71002   0.19900   0.14791   0.00000  Uiso   1.00
O1546  O     0.70924   0.19901   0.49045   0.00000  Uiso   1.00
O1547  O     0.70894   0.19903   0.40319   0.00000  Uiso   1.00
O1548  O     0.54416   0.02049   0.78296   0.00000  Uiso   1.00
O1549  O     0.53866   0.02869   0.52476   0.00000  Uiso   1.00
O1550  O     0.71256   0.12975   0.87005   0.00000  Uiso   1.00
O1551  O     0.70535   0.13380   0.60714   0.00000  Uiso   1.00
O1552  O     0.71123   0.12913   0.78328   0.00000  Uiso   1.00
O1553  O     0.53979   0.02777   0.61255   0.00000  Uiso   1.00
O1554  O     0.53664   0.03101   0.86819   0.00000  Uiso   1.00
O1555  O     0.71538   0.12407   0.52215   0.00000  Uiso   1.00
O1556  O     0.70865   0.19752   0.74354   0.00000  Uiso   1.00
O1557  O     0.70523   0.19737   0.65598   0.00000  Uiso   1.00
O1558  O     0.54288   0.31169   0.48548   0.00000  Uiso   1.00
O1559  O     0.53971   0.36362   0.26957   0.00000  Uiso   1.00
O1560  O     0.54381   0.36141   0.35776   0.00000  Uiso   1.00
O1561  O     0.54410   0.30580   0.39652   0.00000  Uiso   1.00
O1562  O     0.53541   0.36575   0.02373   0.00000  Uiso   1.00
O1563  O     0.54079   0.30389   0.14345   0.00000  Uiso   1.00
O1564  O     0.71273   0.20741   0.23529   0.00000  Uiso   1.00
O1565  O     0.53774   0.30276   0.22987   0.00000  Uiso   1.00
O1566  O     0.53792   0.36137   0.11065   0.00000  Uiso   1.00
O1567  O     0.53801   0.30351   0.98452   0.00000  Uiso   1.00
O1568  O     0.53729   0.36450   0.76889   0.00000  Uiso   1.00
O1569  O     0.53569   0.36747   0.85774   0.00000  Uiso   1.00
O1570  O     0.53787   0.36295   0.61492   0.00000  Uiso   1.00
O1571  O     0.53937   0.30638   0.89814   0.00000  Uiso   1.00
O1572  O     0.53687   0.30357   0.73632   0.00000  Uiso   1.00
O1573  O     0.53704   0.30030   0.64882   0.00000  Uiso   1.00
O1574  O     0.54158   0.36466   0.52541   0.00000  Uiso   1.00
O1575  O     0.71423   0.20442   0.90281   0.00000  Uiso   1.00
O1576  O     0.70842   0.20031   0.98781   0.00000  Uiso   1.00
O1577  O     0.71663   0.46258   0.36720   0.00000  Uiso   1.00
O1578  O     0.70897   0.47188   0.27938   0.00000  Uiso   1.00
O1579  O     0.70787   0.53105   0.40441   0.00000  Uiso   1.00
O1580  O     0.71077   0.46361   0.11434   0.00000  Uiso   1.00
O1581  O     0.70656   0.53375   0.24421   0.00000  Uiso   1.00
O1582  O     0.70672   0.47059   0.02867   0.00000  Uiso   1.00
O1583  O     0.70685   0.53151   0.15780   0.00000  Uiso   1.00
O1584  O     0.70969   0.53370   0.49160   0.00000  Uiso   1.00
O1585  O     0.71863   0.45944   0.61845   0.00000  Uiso   1.00
O1586  O     0.71517   0.46126   0.53349   0.00000  Uiso   1.00
O1587  O     0.70973   0.47242   0.78139   0.00000  Uiso   1.00
O1588  O     0.71080   0.54096   0.73993   0.00000  Uiso   1.00
O1589  O     0.70417   0.52850   0.65478   0.00000  Uiso   1.00
O1590  O     0.71700   0.54550   0.99348   0.00000  Uiso   1.00
O1591  O     0.71084   0.53775   0.90390   0.00000  Uiso   1.00
O1592  O     0.70749   0.47140   0.86697   0.00000  Uiso   1.00
O1593  O     0.53752   0.63689   0.39794   0.00000  Uiso   1.00
O1594  O     0.53649   0.69692   0.27808   0.00000  Uiso   1.00
O1595  O     0.53889   0.69506   0.03355   0.00000  Uiso   1.00
O1596  O     0.53781   0.69538   0.36500   0.00000  Uiso   1.00
O1597  O     0.54004   0.64174   0.15156   0.00000  Uiso   1.00
O1598  O     0.53408   0.63543   0.23898   0.00000  Uiso   1.00
O1599  O     0.53726   0.69875   0.12094   0.00000  Uiso   1.00
O1600  O     0.53775   0.63419   0.48435   0.00000  Uiso   1.00
O1601  O     0.70964   0.79968   0.36784   0.00000  Uiso   1.00
O1602  O     0.71221   0.79839   0.03054   0.00000  Uiso   1.00
O1603  O     0.53956   0.63666   0.89866   0.00000  Uiso   1.00
O1604  O     0.54474   0.68795   0.77651   0.00000  Uiso   1.00
O1605  O     0.54000   0.69085   0.52275   0.00000  Uiso   1.00
O1606  O     0.53741   0.69753   0.86035   0.00000  Uiso   1.00
O1607  O     0.53837   0.63660   0.98896   0.00000  Uiso   1.00
O1608  O     0.54350   0.69494   0.60963   0.00000  Uiso   1.00
O1609  O     0.53922   0.64037   0.64665   0.00000  Uiso   1.00
O1610  O     0.53354   0.63183   0.73415   0.00000  Uiso   1.00
O1611  O     0.70999   0.79640   0.78080   0.00000  Uiso   1.00
O1612  O     0.71489   0.79309   0.61135   0.00000  Uiso   1.00
O1613  O     0.53973   0.97167   0.48822   0.00000  Uiso   1.00
O1614  O     0.71065   0.87047   0.48951   0.00000  Uiso   1.00
O1615  O     0.53948   0.96990   0.15502   0.00000  Uiso   1.00
O1616  O     0.70773   0.87073   0.15230   0.00000  Uiso   1.00
O1617  O     0.54225   0.98085   0.24261   0.00000  Uiso   1.00
O1618  O     0.70975   0.86805   0.23910   0.00000  Uiso   1.00
O1619  O     0.53958   0.97219   0.39841   0.00000  Uiso   1.00
O1620  O     0.70992   0.86849   0.39929   0.00000  Uiso   1.00
O1621  O     0.70980   0.80299   0.27759   0.00000  Uiso   1.00
O1622  O     0.71074   0.80265   0.11675   0.00000  Uiso   1.00
O1623  O     0.53521   0.96696   0.65155   0.00000  Uiso   1.00
O1624  O     0.70675   0.86262   0.65104   0.00000  Uiso   1.00
O1625  O     0.53674   0.96650   0.73934   0.00000  Uiso   1.00
O1626  O     0.71223   0.86920   0.73843   0.00000  Uiso   1.00
O1627  O     0.70629   0.86586   0.98910   0.00000  Uiso   1.00
O1628  O     0.53756   0.97039   0.90118   0.00000  Uiso   1.00
O1629  O     0.71030   0.87105   0.90093   0.00000  Uiso   1.00
O1630  O     0.70758   0.80161   0.86798   0.00000  Uiso   1.00
O1631  O     0.53425   0.96882   0.98850   0.00000  Uiso   1.00
O1632  O     0.71203   0.80151   0.52448   0.00000  Uiso   1.00
O1633  O     0.96105   0.04081   0.37273   0.00000  Uiso   1.00
O1634  O     0.78813   0.18944   0.14548   0.00000  Uiso   1.00
O1635  O     0.79164   0.14297   0.27138   0.00000  Uiso   1.00
O1636  O     0.79325   0.14290   0.36160   0.00000  Uiso   1.00
O1637  O     0.78670   0.19997   0.40352   0.00000  Uiso   1.00
O1638  O     0.96731   0.03688   0.03156   0.00000  Uiso   1.00
O1639  O     0.78593   0.13261   0.02538   0.00000  Uiso   1.00
O1640  O     0.95500   0.02878   0.11832   0.00000  Uiso   1.00
O1641  O     0.78806   0.13292   0.11173   0.00000  Uiso   1.00
O1642  O     0.95989   0.03784   0.28236   0.00000  Uiso   1.00
O1643  O     0.79254   0.18995   0.49029   0.00000  Uiso   1.00
O1644  O     0.78846   0.19239   0.99531   0.00000  Uiso   1.00
O1645  O     0.96632   0.03516   0.77851   0.00000  Uiso   1.00
O1646  O     0.96140   0.03620   0.86524   0.00000  Uiso   1.00
O1647  O     0.79235   0.13762   0.86597   0.00000  Uiso   1.00
O1648  O     0.78898   0.13330   0.77719   0.00000  Uiso   1.00
O1649  O     0.96172   0.03300   0.53510   0.00000  Uiso   1.00
O1650  O     0.79124   0.13442   0.53025   0.00000  Uiso   1.00
O1651  O     0.95997   0.03206   0.62273   0.00000  Uiso   1.00
O1652  O     0.78540   0.13220   0.61877   0.00000  Uiso   1.00
O1653  O     0.79406   0.18824   0.73568   0.00000  Uiso   1.00
O1654  O     0.78460   0.19625   0.64947   0.00000  Uiso   1.00
O1655  O     0.79115   0.19555   0.90634   0.00000  Uiso   1.00
O1656  O     0.96116   0.29946   0.48918   0.00000  Uiso   1.00
O1657  O     0.95754   0.30029   0.40117   0.00000  Uiso   1.00
O1658  O     0.96258   0.37056   0.36014   0.00000  Uiso   1.00
O1659  O     0.95827   0.29746   0.23079   0.00000  Uiso   1.00
O1660  O     0.95902   0.30263   0.14468   0.00000  Uiso   1.00
O1661  O     0.95801   0.36951   0.02462   0.00000  Uiso   1.00
O1662  O     0.96635   0.37665   0.11117   0.00000  Uiso   1.00
O1663  O     0.96196   0.36964   0.27190   0.00000  Uiso   1.00
O1664  O     0.78409   0.20191   0.23185   0.00000  Uiso   1.00
O1665  O     0.95962   0.29495   0.90336   0.00000  Uiso   1.00
O1666  O     0.96429   0.29519   0.99148   0.00000  Uiso   1.00
O1667  O     0.95925   0.36763   0.86536   0.00000  Uiso   1.00
O1668  O     0.95932   0.29774   0.73899   0.00000  Uiso   1.00
O1669  O     0.96469   0.29152   0.65278   0.00000  Uiso   1.00
O1670  O     0.96364   0.37094   0.52981   0.00000  Uiso   1.00
O1671  O     0.96017   0.36479   0.61821   0.00000  Uiso   1.00
O1672  O     0.96240   0.37235   0.77730   0.00000  Uiso   1.00
O1673  O     0.78102   0.53975   0.24170   0.00000  Uiso   1.00
O1674  O     0.79046   0.47147   0.36415   0.00000  Uiso   1.00
O1675  O     0.78369   0.46356   0.11677   0.00000  Uiso   1.00
O1676  O     0.79019   0.47374   0.02877   0.00000  Uiso   1.00
O1677  O     0.79054   0.53048   0.40797   0.00000  Uiso   1.00
O1678  O     0.79128   0.52665   0.15502   0.00000  Uiso   1.00
O1679  O     0.78981   0.47328   0.27443   0.00000  Uiso   1.00
O1680  O     0.78775   0.53222   0.49500   0.00000  Uiso   1.00
O1681  O     0.79165   0.47441   0.62336   0.00000  Uiso   1.00
O1682  O     0.78626   0.47169   0.86846   0.00000  Uiso   1.00
O1683  O     0.78757   0.53524   0.74389   0.00000  Uiso   1.00
O1684  O     0.78390   0.53734   0.65691   0.00000  Uiso   1.00
O1685  O     0.79489   0.47513   0.53468   0.00000  Uiso   1.00
O1686  O     0.79008   0.53089   0.99277   0.00000  Uiso   1.00
O1687  O     0.79049   0.52969   0.90438   0.00000  Uiso   1.00
O1688  O     0.78911   0.47567   0.78019   0.00000  Uiso   1.00
O1689  O     0.96684   0.62792   0.48994   0.00000  Uiso   1.00
O1690  O     0.96256   0.70436   0.11665   0.00000  Uiso   1.00
O1691  O     0.96186   0.70244   0.36705   0.00000  Uiso   1.00
O1692  O     0.96335   0.70349   0.02871   0.00000  Uiso   1.00
O1693  O     0.96678   0.71111   0.27823   0.00000  Uiso   1.00
O1694  O     0.96187   0.63249   0.40169   0.00000  Uiso   1.00
O1695  O     0.95637   0.63661   0.15579   0.00000  Uiso   1.00
O1696  O     0.95831   0.63763   0.24537   0.00000  Uiso   1.00
O1697  O     0.78478   0.79996   0.36471   0.00000  Uiso   1.00
O1698  O     0.96260   0.70513   0.86460   0.00000  Uiso   1.00
O1699  O     0.95917   0.70073   0.77615   0.00000  Uiso   1.00
O1700  O     0.96164   0.63389   0.90523   0.00000  Uiso   1.00
O1701  O     0.96086   0.63352   0.99410   0.00000  Uiso   1.00
O1702  O     0.96317   0.62935   0.74103   0.00000  Uiso   1.00
O1703  O     0.96201   0.62928   0.65071   0.00000  Uiso   1.00
O1704  O     0.96386   0.70030   0.52772   0.00000  Uiso   1.00
O1705  O     0.96090   0.69838   0.61802   0.00000  Uiso   1.00
O1706  O     0.78979   0.86161   0.40417   0.00000  Uiso   1.00
O1707  O     0.78816   0.80727   0.02583   0.00000  Uiso   1.00
O1708  O     0.78576   0.86654   0.15524   0.00000  Uiso   1.00
O1709  O     0.95985   0.96876   0.40504   0.00000  Uiso   1.00
O1710  O     0.78655   0.87010   0.49259   0.00000  Uiso   1.00
O1711  O     0.79040   0.80793   0.11405   0.00000  Uiso   1.00
O1712  O     0.78727   0.86839   0.24463   0.00000  Uiso   1.00
O1713  O     0.95552   0.96894   0.24576   0.00000  Uiso   1.00
O1714  O     0.96582   0.96057   0.16062   0.00000  Uiso   1.00
O1715  O     0.96421   0.96164   0.49158   0.00000  Uiso   1.00
O1716  O     0.78868   0.80321   0.27622   0.00000  Uiso   1.00
O1717  O     0.79097   0.80541   0.87181   0.00000  Uiso   1.00
O1718  O     0.78952   0.80739   0.61365   0.00000  Uiso   1.00
O1719  O     0.78765   0.86166   0.99081   0.00000  Uiso   1.00
O1720  O     0.95972   0.96394   0.90633   0.00000  Uiso   1.00
O1721  O     0.78862   0.85944   0.74229   0.00000  Uiso   1.00
O1722  O     0.96160   0.96108   0.99307   0.00000  Uiso   1.00
O1723  O     0.96010   0.96453   0.74553   0.00000  Uiso   1.00
O1724  O     0.78571   0.86925   0.90475   0.00000  Uiso   1.00
O1725  O     0.79011   0.86045   0.65466   0.00000  Uiso   1.00
O1726  O     0.96355   0.96078   0.65541   0.00000  Uiso   1.00
O1727  O     0.79493   0.81393   0.52588   0.00000  Uiso   1.00
O1728  O     0.79092   0.80500   0.78181   0.00000  Uiso   1.00
O1729  O     0.23952   0.14691   0.44335   0.00000  Uiso   1.00
O1730  O     0.23822   0.18865   0.31753   0.00000  Uiso   1.00
O1731  O     0.24012   0.14699   0.19482   0.00000  Uiso   1.00
O1732  O     0.23761   0.19218   0.06678   0.00000  Uiso   1.00
O1733  O     0.23807   0.18733   0.56823   0.00000  Uiso   1.00
O1734  O     0.23876   0.14747   0.94325   0.00000  Uiso   1.00
O1735  O     0.23743   0.18688   0.81781   0.00000  Uiso   1.00
O1736  O     0.23779   0.14351   0.69317   0.00000  Uiso   1.00
O1737  O     0.23743   0.52546   0.07007   0.00000  Uiso   1.00
O1738  O     0.23947   0.51923   0.32281   0.00000  Uiso   1.00
O1739  O     0.23822   0.47815   0.44872   0.00000  Uiso   1.00
O1740  O     0.23587   0.48295   0.19632   0.00000  Uiso   1.00
O1741  O     0.23917   0.52286   0.57288   0.00000  Uiso   1.00
O1742  O     0.23402   0.52213   0.82275   0.00000  Uiso   1.00
O1743  O     0.24552   0.47944   0.94979   0.00000  Uiso   1.00
O1744  O     0.23707   0.47947   0.69824   0.00000  Uiso   1.00
O1745  O     0.23632   0.81208   0.44533   0.00000  Uiso   1.00
O1746  O     0.23747   0.85553   0.06781   0.00000  Uiso   1.00
O1747  O     0.24048   0.81381   0.19741   0.00000  Uiso   1.00
O1748  O     0.24091   0.85800   0.32174   0.00000  Uiso   1.00
O1749  O     0.23867   0.80839   0.69228   0.00000  Uiso   1.00
O1750  O     0.23909   0.80781   0.94318   0.00000  Uiso   1.00
O1751  O     0.23873   0.85631   0.56803   0.00000  Uiso   1.00
O1752  O     0.23527   0.84809   0.81982   0.00000  Uiso   1.00
O1753  O     0.48496   0.02297   0.19448   0.00000  Uiso   1.00
O1754  O     0.48646   0.02030   0.44411   0.00000  Uiso   1.00
O1755  O     0.48261   0.02185   0.94612   0.00000  Uiso   1.00
O1756  O     0.49440   0.02135   0.69424   0.00000  Uiso   1.00
O1757  O     0.48970   0.31262   0.06372   0.00000  Uiso   1.00
O1758  O     0.48798   0.35548   0.43744   0.00000  Uiso   1.00
O1759  O     0.49109   0.31354   0.31572   0.00000  Uiso   1.00
O1760  O     0.48814   0.35659   0.19091   0.00000  Uiso   1.00
O1761  O     0.48864   0.35853   0.94346   0.00000  Uiso   1.00
O1762  O     0.48929   0.35441   0.69013   0.00000  Uiso   1.00
O1763  O     0.49329   0.31226   0.81779   0.00000  Uiso   1.00
O1764  O     0.48399   0.31166   0.56223   0.00000  Uiso   1.00
O1765  O     0.48396   0.64388   0.32056   0.00000  Uiso   1.00
O1766  O     0.48702   0.68670   0.44548   0.00000  Uiso   1.00
O1767  O     0.48931   0.64438   0.07350   0.00000  Uiso   1.00
O1768  O     0.48645   0.68901   0.19694   0.00000  Uiso   1.00
O1769  O     0.49476   0.69119   0.69191   0.00000  Uiso   1.00
O1770  O     0.49106   0.68913   0.94568   0.00000  Uiso   1.00
O1771  O     0.49013   0.64586   0.81915   0.00000  Uiso   1.00
O1772  O     0.48858   0.64330   0.56817   0.00000  Uiso   1.00
O1773  O     0.48603   0.97576   0.07100   0.00000  Uiso   1.00
O1774  O     0.48417   0.97934   0.31671   0.00000  Uiso   1.00
O1775  O     0.48273   0.97656   0.81966   0.00000  Uiso   1.00
O1776  O     0.48873   0.97561   0.56957   0.00000  Uiso   1.00
O1777  O     0.73477   0.14242   0.19367   0.00000  Uiso   1.00
O1778  O     0.73926   0.19111   0.31899   0.00000  Uiso   1.00
O1779  O     0.74565   0.14245   0.44507   0.00000  Uiso   1.00
O1780  O     0.73160   0.18428   0.07059   0.00000  Uiso   1.00
O1781  O     0.73616   0.14157   0.94446   0.00000  Uiso   1.00
O1782  O     0.74490   0.18927   0.82102   0.00000  Uiso   1.00
O1783  O     0.73311   0.14195   0.69692   0.00000  Uiso   1.00
O1784  O     0.74116   0.18621   0.57030   0.00000  Uiso   1.00
O1785  O     0.74217   0.52456   0.32875   0.00000  Uiso   1.00
O1786  O     0.74146   0.47689   0.45015   0.00000  Uiso   1.00
O1787  O     0.74459   0.48103   0.19999   0.00000  Uiso   1.00
O1788  O     0.74295   0.52568   0.07664   0.00000  Uiso   1.00
O1789  O     0.74028   0.52377   0.82677   0.00000  Uiso   1.00
O1790  O     0.73959   0.52223   0.57408   0.00000  Uiso   1.00
O1791  O     0.73832   0.48080   0.94917   0.00000  Uiso   1.00
O1792  O     0.74404   0.47975   0.70203   0.00000  Uiso   1.00
O1793  O     0.74236   0.81282   0.19534   0.00000  Uiso   1.00
O1794  O     0.73675   0.85685   0.07213   0.00000  Uiso   1.00
O1795  O     0.74099   0.85423   0.32140   0.00000  Uiso   1.00
O1796  O     0.74059   0.81351   0.44977   0.00000  Uiso   1.00
O1797  O     0.73985   0.85675   0.57584   0.00000  Uiso   1.00
O1798  O     0.74324   0.80805   0.69690   0.00000  Uiso   1.00
O1799  O     0.73736   0.85489   0.82308   0.00000  Uiso   1.00
O1800  O     0.73395   0.81145   0.94516   0.00000  Uiso   1.00
O1801  O     0.98185   0.02149   0.45080   0.00000  Uiso   1.00
O1802  O     0.98672   0.02083   0.19667   0.00000  Uiso   1.00
O1803  O     0.98826   0.02152   0.95239   0.00000  Uiso   1.00
O1804  O     0.99200   0.02168   0.69890   0.00000  Uiso   1.00
O1805  O     0.99168   0.35360   0.44320   0.00000  Uiso   1.00
O1806  O     0.98392   0.30976   0.31800   0.00000  Uiso   1.00
O1807  O     0.98804   0.35879   0.19248   0.00000  Uiso   1.00
O1808  O     0.99069   0.31593   0.06927   0.00000  Uiso   1.00
O1809  O     0.98774   0.31063   0.57040   0.00000  Uiso   1.00
O1810  O     0.99162   0.35240   0.69546   0.00000  Uiso   1.00
O1811  O     0.98484   0.31083   0.81891   0.00000  Uiso   1.00
O1812  O     0.98568   0.35648   0.94300   0.00000  Uiso   1.00
O1813  O     0.98971   0.69267   0.19812   0.00000  Uiso   1.00
O1814  O     0.98891   0.68952   0.44782   0.00000  Uiso   1.00
O1815  O     0.98879   0.64614   0.07555   0.00000  Uiso   1.00
O1816  O     0.98586   0.64773   0.32106   0.00000  Uiso   1.00
O1817  O     0.98970   0.68839   0.69902   0.00000  Uiso   1.00
O1818  O     0.98947   0.64699   0.82323   0.00000  Uiso   1.00
O1819  O     0.99580   0.69119   0.94709   0.00000  Uiso   1.00
O1820  O     0.98965   0.64485   0.57203   0.00000  Uiso   1.00
O1821  O     0.98585   0.98041   0.32589   0.00000  Uiso   1.00
O1822  O     0.98713   0.97793   0.07151   0.00000  Uiso   1.00
O1823  O     0.98831   0.97899   0.82464   0.00000  Uiso   1.00
O1824  O     0.99036   0.97837   0.57607   0.00000  Uiso   1.00
