data_final_Br-Ni-SABVOH01
_audit_creation_date              2022-12-15
_audit_creation_method            'Materials Studio'
_symmetry_space_group_name_H-M    'P1'
_symmetry_Int_Tables_number       1
_symmetry_cell_setting            triclinic
loop_
_symmetry_equiv_pos_as_xyz
  x,y,z
_cell_length_a                    33.3775
_cell_length_b                    36.0722
_cell_length_c                    25.8265
_cell_angle_alpha                 90.0000
_cell_angle_beta                  90.0000
_cell_angle_gamma                 90.0000
loop_
_atom_site_label
_atom_site_type_symbol
_atom_site_fract_x
_atom_site_fract_y
_atom_site_fract_z
_atom_site_U_iso_or_equiv
_atom_site_adp_type
_atom_site_occupancy
Ni1    Ni    0.24913   0.16787   0.00424   0.00000  Uiso   1.00
Ni2    Ni    0.24697   0.16603   0.25624   0.00000  Uiso   1.00
Ni3    Ni    0.24798   0.16342   0.13026   0.00000  Uiso   1.00
Ni4    Ni    0.24702   0.16523   0.38290   0.00000  Uiso   1.00
Ni5    Ni    0.00255   0.00241   0.75249   0.00000  Uiso   1.00
Ni6    Ni    0.24855   0.16454   0.50335   0.00000  Uiso   1.00
Ni7    Ni    0.24847   0.16392   0.62968   0.00000  Uiso   1.00
Ni8    Ni    0.00076   0.00230   0.87838   0.00000  Uiso   1.00
Ni9    Ni    0.00062   0.33495   0.38508   0.00000  Uiso   1.00
Ni10   Ni    0.00053   0.33854   0.13368   0.00000  Uiso   1.00
Ni11   Ni    0.00085   0.33753   0.26080   0.00000  Uiso   1.00
Ni12   Ni    0.00138   0.33912   0.88368   0.00000  Uiso   1.00
Ni13   Ni    0.24995   0.50013   0.76428   0.00000  Uiso   1.00
Ni14   Ni    0.00060   0.66744   0.13346   0.00000  Uiso   1.00
Ni15   Ni    0.00003   0.66685   0.25824   0.00000  Uiso   1.00
Ni16   Ni    0.00320   0.66542   0.38196   0.00000  Uiso   1.00
Ni17   Ni    0.00138   0.66537   0.01020   0.00000  Uiso   1.00
Ni18   Ni    0.00102   0.66546   0.50812   0.00000  Uiso   1.00
Ni19   Ni    0.00086   0.66693   0.63200   0.00000  Uiso   1.00
Ni20   Ni    0.00008   0.66774   0.88468   0.00000  Uiso   1.00
Ni21   Ni    0.00090   0.66865   0.75765   0.00000  Uiso   1.00
Ni22   Ni    0.24895   0.83429   0.38222   0.00000  Uiso   1.00
Ni23   Ni    0.24876   0.83515   0.25735   0.00000  Uiso   1.00
Ni24   Ni    0.24719   0.83457   0.13163   0.00000  Uiso   1.00
Ni25   Ni    0.24946   0.83649   0.00722   0.00000  Uiso   1.00
Ni26   Ni    0.00018   0.99790   0.37623   0.00000  Uiso   1.00
Ni27   Ni    0.24886   0.83450   0.88141   0.00000  Uiso   1.00
Ni28   Ni    0.24937   0.83221   0.50641   0.00000  Uiso   1.00
Ni29   Ni    0.25104   0.16766   0.75504   0.00000  Uiso   1.00
Ni30   Ni    0.25115   0.17044   0.88107   0.00000  Uiso   1.00
Ni31   Ni    0.49880   0.33063   0.25581   0.00000  Uiso   1.00
Ni32   Ni    0.49928   0.33169   0.00971   0.00000  Uiso   1.00
Ni33   Ni    0.49943   0.33135   0.13326   0.00000  Uiso   1.00
Ni34   Ni    0.49959   0.32994   0.75788   0.00000  Uiso   1.00
Ni35   Ni    0.49800   0.33224   0.88274   0.00000  Uiso   1.00
Ni36   Ni    0.25282   0.50082   0.38916   0.00000  Uiso   1.00
Ni37   Ni    0.25210   0.49992   0.26302   0.00000  Uiso   1.00
Ni38   Ni    0.25146   0.50204   0.01380   0.00000  Uiso   1.00
Ni39   Ni    0.25226   0.49975   0.13864   0.00000  Uiso   1.00
Ni40   Ni    0.25131   0.49971   0.51209   0.00000  Uiso   1.00
Ni41   Ni    0.25092   0.49714   0.63812   0.00000  Uiso   1.00
Ni42   Ni    0.25099   0.50230   0.88963   0.00000  Uiso   1.00
Ni43   Ni    0.49789   0.66839   0.13513   0.00000  Uiso   1.00
Ni44   Ni    0.49866   0.66783   0.63508   0.00000  Uiso   1.00
Ni45   Ni    0.25065   0.83289   0.63124   0.00000  Uiso   1.00
Ni46   Ni    0.25137   0.83374   0.75536   0.00000  Uiso   1.00
Ni47   Ni    0.50079   0.00022   0.13133   0.00000  Uiso   1.00
Ni48   Ni    0.50059   0.00021   0.25694   0.00000  Uiso   1.00
Ni49   Ni    0.50423   0.00068   0.75443   0.00000  Uiso   1.00
Ni50   Ni    0.50025   0.32995   0.38155   0.00000  Uiso   1.00
Ni51   Ni    0.50145   0.32579   0.50824   0.00000  Uiso   1.00
Ni52   Ni    0.50103   0.32569   0.63233   0.00000  Uiso   1.00
Ni53   Ni    0.74689   0.49920   0.00655   0.00000  Uiso   1.00
Ni54   Ni    0.74822   0.49626   0.38096   0.00000  Uiso   1.00
Ni55   Ni    0.74683   0.50201   0.13040   0.00000  Uiso   1.00
Ni56   Ni    0.74776   0.49842   0.25592   0.00000  Uiso   1.00
Ni57   Ni    0.74986   0.50025   0.62909   0.00000  Uiso   1.00
Ni58   Ni    0.74951   0.50097   0.88093   0.00000  Uiso   1.00
Ni59   Ni    0.74833   0.49834   0.50501   0.00000  Uiso   1.00
Ni60   Ni    0.50053   0.66646   0.38506   0.00000  Uiso   1.00
Ni61   Ni    0.50020   0.66904   0.01015   0.00000  Uiso   1.00
Ni62   Ni    0.50115   0.66799   0.25998   0.00000  Uiso   1.00
Ni63   Ni    0.50017   0.66690   0.76007   0.00000  Uiso   1.00
Ni64   Ni    0.50104   0.66807   0.50876   0.00000  Uiso   1.00
Ni65   Ni    0.50219   0.66694   0.88473   0.00000  Uiso   1.00
Ni66   Ni    0.74850   0.82935   0.26067   0.00000  Uiso   1.00
Ni67   Ni    0.50241   0.99814   0.00477   0.00000  Uiso   1.00
Ni68   Ni    0.50320   0.99991   0.38025   0.00000  Uiso   1.00
Ni69   Ni    0.50285   0.99907   0.87988   0.00000  Uiso   1.00
Ni70   Ni    0.50405   0.99979   0.50724   0.00000  Uiso   1.00
Ni71   Ni    0.50472   0.99889   0.63017   0.00000  Uiso   1.00
Ni72   Ni    0.75208   0.16887   0.25945   0.00000  Uiso   1.00
Ni73   Ni    0.75111   0.17124   0.13428   0.00000  Uiso   1.00
Ni74   Ni    0.75056   0.16731   0.00822   0.00000  Uiso   1.00
Ni75   Ni    0.75086   0.16469   0.38560   0.00000  Uiso   1.00
Ni76   Ni    0.75223   0.16463   0.88160   0.00000  Uiso   1.00
Ni77   Ni    0.75186   0.16520   0.75699   0.00000  Uiso   1.00
Ni78   Ni    0.99883   0.00010   0.50261   0.00000  Uiso   1.00
Ni79   Ni    0.75242   0.16720   0.63314   0.00000  Uiso   1.00
Ni80   Ni    0.99968   0.00137   0.62759   0.00000  Uiso   1.00
Ni81   Ni    0.75092   0.16571   0.50941   0.00000  Uiso   1.00
Ni82   Ni    0.99967   0.33875   0.00913   0.00000  Uiso   1.00
Ni83   Ni    0.99897   0.33380   0.51004   0.00000  Uiso   1.00
Ni84   Ni    0.99968   0.33772   0.75939   0.00000  Uiso   1.00
Ni85   Ni    0.99726   0.33593   0.63453   0.00000  Uiso   1.00
Ni86   Ni    0.75081   0.50007   0.75484   0.00000  Uiso   1.00
Ni87   Ni    0.75092   0.82920   0.13426   0.00000  Uiso   1.00
Ni88   Ni    0.99848   0.99909   0.12812   0.00000  Uiso   1.00
Ni89   Ni    0.75099   0.82964   0.00866   0.00000  Uiso   1.00
Ni90   Ni    0.99840   0.99833   0.00246   0.00000  Uiso   1.00
Ni91   Ni    0.99931   0.99871   0.25242   0.00000  Uiso   1.00
Ni92   Ni    0.75023   0.83114   0.38593   0.00000  Uiso   1.00
Ni93   Ni    0.75009   0.83445   0.51339   0.00000  Uiso   1.00
Ni94   Ni    0.75038   0.82983   0.88611   0.00000  Uiso   1.00
Ni95   Ni    0.75109   0.83116   0.76299   0.00000  Uiso   1.00
Ni96   Ni    0.75201   0.83598   0.63641   0.00000  Uiso   1.00
Br97   Br    0.05907   0.10600   0.48254   0.00000  Uiso   1.00
Br98   Br    0.11287   0.16001   0.22055   0.00000  Uiso   1.00
Br99   Br    0.10953   0.16242   0.36853   0.00000  Uiso   1.00
Br100  Br    0.18835   0.06387   0.15491   0.00000  Uiso   1.00
Br101  Br    0.19340   0.06281   0.66033   0.00000  Uiso   1.00
Br102  Br    0.07243   0.09774   0.71415   0.00000  Uiso   1.00
Br103  Br    0.19229   0.06927   0.91701   0.00000  Uiso   1.00
Br104  Br    0.06207   0.09793   0.96325   0.00000  Uiso   1.00
Br105  Br    0.04637   0.22253   0.00670   0.00000  Uiso   1.00
Br106  Br    0.13569   0.34169   0.16730   0.00000  Uiso   1.00
Br107  Br    0.19186   0.27611   0.36526   0.00000  Uiso   1.00
Br108  Br    0.20149   0.37884   0.01952   0.00000  Uiso   1.00
Br109  Br    0.04249   0.21638   0.74859   0.00000  Uiso   1.00
Br110  Br    0.21188   0.28882   0.88617   0.00000  Uiso   1.00
Br111  Br    0.13404   0.33484   0.77715   0.00000  Uiso   1.00
Br112  Br    0.04081   0.21585   0.50934   0.00000  Uiso   1.00
Br113  Br    0.20376   0.28627   0.63136   0.00000  Uiso   1.00
Br114  Br    0.12760   0.32693   0.54789   0.00000  Uiso   1.00
Br115  Br    0.04624   0.55638   0.27329   0.00000  Uiso   1.00
Br116  Br    0.11816   0.49172   0.42637   0.00000  Uiso   1.00
Br117  Br    0.03908   0.46383   0.10614   0.00000  Uiso   1.00
Br118  Br    0.06519   0.43565   0.22814   0.00000  Uiso   1.00
Br119  Br    0.04091   0.54684   0.00899   0.00000  Uiso   1.00
Br120  Br    0.18868   0.40646   0.42841   0.00000  Uiso   1.00
Br121  Br    0.12302   0.50674   0.86329   0.00000  Uiso   1.00
Br122  Br    0.04623   0.55014   0.76472   0.00000  Uiso   1.00
Br123  Br    0.11931   0.50942   0.58720   0.00000  Uiso   1.00
Br124  Br    0.13258   0.67434   0.45781   0.00000  Uiso   1.00
Br125  Br    0.21309   0.70895   0.04832   0.00000  Uiso   1.00
Br126  Br    0.14030   0.66865   0.27686   0.00000  Uiso   1.00
Br127  Br    0.05937   0.77153   0.47684   0.00000  Uiso   1.00
Br128  Br    0.03711   0.79098   0.09657   0.00000  Uiso   1.00
Br129  Br    0.20426   0.61756   0.13648   0.00000  Uiso   1.00
Br130  Br    0.18535   0.72989   0.66525   0.00000  Uiso   1.00
Br131  Br    0.18993   0.72376   0.91731   0.00000  Uiso   1.00
Br132  Br    0.20528   0.61680   0.63519   0.00000  Uiso   1.00
Br133  Br    0.06233   0.77520   0.73332   0.00000  Uiso   1.00
Br134  Br    0.19658   0.61935   0.88900   0.00000  Uiso   1.00
Br135  Br    0.20066   0.95083   0.13033   0.00000  Uiso   1.00
Br136  Br    0.20819   0.95475   0.38335   0.00000  Uiso   1.00
Br137  Br    0.04487   0.88051   0.26059   0.00000  Uiso   1.00
Br138  Br    0.10995   0.83943   0.37739   0.00000  Uiso   1.00
Br139  Br    0.13733   0.99342   0.27796   0.00000  Uiso   1.00
Br140  Br    0.19110   0.93551   0.60282   0.00000  Uiso   1.00
Br141  Br    0.21000   0.95646   0.92964   0.00000  Uiso   1.00
Br142  Br    0.05236   0.88767   0.77172   0.00000  Uiso   1.00
Br143  Br    0.03772   0.87475   0.97075   0.00000  Uiso   1.00
Br144  Br    0.05025   0.88565   0.51129   0.00000  Uiso   1.00
Br145  Br    0.29796   0.04568   0.12052   0.00000  Uiso   1.00
Br146  Br    0.29326   0.04780   0.37288   0.00000  Uiso   1.00
Br147  Br    0.45248   0.11831   0.25476   0.00000  Uiso   1.00
Br148  Br    0.45227   0.11910   0.00065   0.00000  Uiso   1.00
Br149  Br    0.35911   0.11918   0.44937   0.00000  Uiso   1.00
Br150  Br    0.38738   0.17001   0.77398   0.00000  Uiso   1.00
Br151  Br    0.39523   0.05174   0.68398   0.00000  Uiso   1.00
Br152  Br    0.30075   0.27472   0.28049   0.00000  Uiso   1.00
Br153  Br    0.43958   0.23261   0.34793   0.00000  Uiso   1.00
Br154  Br    0.29852   0.38034   0.13831   0.00000  Uiso   1.00
Br155  Br    0.29805   0.28876   0.00428   0.00000  Uiso   1.00
Br156  Br    0.43722   0.22282   0.10125   0.00000  Uiso   1.00
Br157  Br    0.30504   0.38349   0.39543   0.00000  Uiso   1.00
Br158  Br    0.44955   0.21380   0.61805   0.00000  Uiso   1.00
Br159  Br    0.29533   0.28438   0.75074   0.00000  Uiso   1.00
Br160  Br    0.28749   0.37960   0.87572   0.00000  Uiso   1.00
Br161  Br    0.30097   0.27906   0.51629   0.00000  Uiso   1.00
Br162  Br    0.45932   0.20599   0.90805   0.00000  Uiso   1.00
Br163  Br    0.29935   0.37927   0.64365   0.00000  Uiso   1.00
Br164  Br    0.45849   0.45084   0.26218   0.00000  Uiso   1.00
Br165  Br    0.46037   0.54668   0.14283   0.00000  Uiso   1.00
Br166  Br    0.45485   0.54655   0.38091   0.00000  Uiso   1.00
Br167  Br    0.45649   0.44984   0.78649   0.00000  Uiso   1.00
Br168  Br    0.44977   0.44272   0.99353   0.00000  Uiso   1.00
Br169  Br    0.44547   0.55583   0.62140   0.00000  Uiso   1.00
Br170  Br    0.46016   0.54430   0.92436   0.00000  Uiso   1.00
Br171  Br    0.45471   0.44169   0.50715   0.00000  Uiso   1.00
Br172  Br    0.36968   0.66530   0.11154   0.00000  Uiso   1.00
Br173  Br    0.38751   0.70864   0.43274   0.00000  Uiso   1.00
Br174  Br    0.29296   0.61743   0.25422   0.00000  Uiso   1.00
Br175  Br    0.35760   0.79001   0.20742   0.00000  Uiso   1.00
Br176  Br    0.45935   0.78850   0.76562   0.00000  Uiso   1.00
Br177  Br    0.30299   0.60847   0.53038   0.00000  Uiso   1.00
Br178  Br    0.29598   0.71873   0.87388   0.00000  Uiso   1.00
Br179  Br    0.29542   0.71229   0.61969   0.00000  Uiso   1.00
Br180  Br    0.30674   0.60511   0.78915   0.00000  Uiso   1.00
Br181  Br    0.45860   0.78920   0.52466   0.00000  Uiso   1.00
Br182  Br    0.28745   0.62548   0.99028   0.00000  Uiso   1.00
Br183  Br    0.45255   0.88850   0.12967   0.00000  Uiso   1.00
Br184  Br    0.28900   0.95531   0.24833   0.00000  Uiso   1.00
Br185  Br    0.36763   0.86785   0.33650   0.00000  Uiso   1.00
Br186  Br    0.38143   0.83818   0.03227   0.00000  Uiso   1.00
Br187  Br    0.30131   0.94997   0.02280   0.00000  Uiso   1.00
Br188  Br    0.45651   0.88154   0.63013   0.00000  Uiso   1.00
Br189  Br    0.38008   0.97348   0.54305   0.00000  Uiso   1.00
Br190  Br    0.29933   0.95046   0.75980   0.00000  Uiso   1.00
Br191  Br    0.44566   0.88405   0.87155   0.00000  Uiso   1.00
Br192  Br    0.37056   0.99790   0.85940   0.00000  Uiso   1.00
Br193  Br    0.70397   0.05125   0.24926   0.00000  Uiso   1.00
Br194  Br    0.55048   0.11382   0.13696   0.00000  Uiso   1.00
Br195  Br    0.54723   0.11785   0.38566   0.00000  Uiso   1.00
Br196  Br    0.62100   0.16596   0.60830   0.00000  Uiso   1.00
Br197  Br    0.54752   0.12535   0.87152   0.00000  Uiso   1.00
Br198  Br    0.70705   0.04416   0.76280   0.00000  Uiso   1.00
Br199  Br    0.61573   0.16155   0.99605   0.00000  Uiso   1.00
Br200  Br    0.70496   0.04779   0.99999   0.00000  Uiso   1.00
Br201  Br    0.70343   0.38188   0.25384   0.00000  Uiso   1.00
Br202  Br    0.54422   0.21072   0.25212   0.00000  Uiso   1.00
Br203  Br    0.70632   0.28304   0.39288   0.00000  Uiso   1.00
Br204  Br    0.70631   0.29188   0.14129   0.00000  Uiso   1.00
Br205  Br    0.70045   0.38396   0.00273   0.00000  Uiso   1.00
Br206  Br    0.54192   0.20982   0.49891   0.00000  Uiso   1.00
Br207  Br    0.70359   0.37999   0.76931   0.00000  Uiso   1.00
Br208  Br    0.62798   0.32961   0.89287   0.00000  Uiso   1.00
Br209  Br    0.70696   0.27838   0.63033   0.00000  Uiso   1.00
Br210  Br    0.54978   0.21576   0.76405   0.00000  Uiso   1.00
Br211  Br    0.63483   0.32714   0.52766   0.00000  Uiso   1.00
Br212  Br    0.61428   0.49671   0.47614   0.00000  Uiso   1.00
Br213  Br    0.54323   0.45161   0.37608   0.00000  Uiso   1.00
Br214  Br    0.54266   0.44772   0.13858   0.00000  Uiso   1.00
Br215  Br    0.54752   0.55316   0.26410   0.00000  Uiso   1.00
Br216  Br    0.55382   0.55802   0.77658   0.00000  Uiso   1.00
Br217  Br    0.61207   0.49849   0.60834   0.00000  Uiso   1.00
Br218  Br    0.61559   0.49579   0.97980   0.00000  Uiso   1.00
Br219  Br    0.54313   0.45327   0.88079   0.00000  Uiso   1.00
Br220  Br    0.54804   0.78303   0.38872   0.00000  Uiso   1.00
Br221  Br    0.70385   0.71317   0.01662   0.00000  Uiso   1.00
Br222  Br    0.70132   0.71047   0.26343   0.00000  Uiso   1.00
Br223  Br    0.64048   0.67424   0.42226   0.00000  Uiso   1.00
Br224  Br    0.53982   0.78965   0.11736   0.00000  Uiso   1.00
Br225  Br    0.69776   0.61424   0.12317   0.00000  Uiso   1.00
Br226  Br    0.62787   0.66868   0.76465   0.00000  Uiso   1.00
Br227  Br    0.54540   0.79082   0.63070   0.00000  Uiso   1.00
Br228  Br    0.63435   0.67262   0.92335   0.00000  Uiso   1.00
Br229  Br    0.68991   0.60628   0.60243   0.00000  Uiso   1.00
Br230  Br    0.70847   0.71083   0.53552   0.00000  Uiso   1.00
Br231  Br    0.61474   0.82566   0.23672   0.00000  Uiso   1.00
Br232  Br    0.70454   0.94649   0.39029   0.00000  Uiso   1.00
Br233  Br    0.55544   0.88817   0.02329   0.00000  Uiso   1.00
Br234  Br    0.62949   0.99508   0.14605   0.00000  Uiso   1.00
Br235  Br    0.71561   0.95765   0.65899   0.00000  Uiso   1.00
Br236  Br    0.69686   0.94008   0.85713   0.00000  Uiso   1.00
Br237  Br    0.55192   0.87991   0.75679   0.00000  Uiso   1.00
Br238  Br    0.61593   0.83537   0.87050   0.00000  Uiso   1.00
Br239  Br    0.54220   0.88154   0.50913   0.00000  Uiso   1.00
Br240  Br    0.63665   0.98873   0.54023   0.00000  Uiso   1.00
Br241  Br    0.88823   0.17189   0.02970   0.00000  Uiso   1.00
Br242  Br    0.80640   0.06239   0.22909   0.00000  Uiso   1.00
Br243  Br    0.94265   0.10185   0.41126   0.00000  Uiso   1.00
Br244  Br    0.81475   0.06696   0.47220   0.00000  Uiso   1.00
Br245  Br    0.81222   0.06377   0.73367   0.00000  Uiso   1.00
Br246  Br    0.93836   0.10392   0.66774   0.00000  Uiso   1.00
Br247  Br    0.95596   0.12476   0.89356   0.00000  Uiso   1.00
Br248  Br    0.94707   0.21702   0.38391   0.00000  Uiso   1.00
Br249  Br    0.95158   0.21957   0.12896   0.00000  Uiso   1.00
Br250  Br    0.81278   0.26635   0.04415   0.00000  Uiso   1.00
Br251  Br    0.80187   0.28640   0.26866   0.00000  Uiso   1.00
Br252  Br    0.80791   0.38632   0.23005   0.00000  Uiso   1.00
Br253  Br    0.95444   0.22588   0.63003   0.00000  Uiso   1.00
Br254  Br    0.93303   0.24816   0.84234   0.00000  Uiso   1.00
Br255  Br    0.79237   0.28909   0.75207   0.00000  Uiso   1.00
Br256  Br    0.79227   0.29068   0.50785   0.00000  Uiso   1.00
Br257  Br    0.86794   0.33436   0.61743   0.00000  Uiso   1.00
Br258  Br    0.93352   0.44022   0.42259   0.00000  Uiso   1.00
Br259  Br    0.95159   0.55030   0.38061   0.00000  Uiso   1.00
Br260  Br    0.92412   0.43112   0.17936   0.00000  Uiso   1.00
Br261  Br    0.95338   0.55091   0.13432   0.00000  Uiso   1.00
Br262  Br    0.93287   0.43968   0.92165   0.00000  Uiso   1.00
Br263  Br    0.95537   0.54697   0.62917   0.00000  Uiso   1.00
Br264  Br    0.88031   0.50408   0.52190   0.00000  Uiso   1.00
Br265  Br    0.94169   0.56244   0.85773   0.00000  Uiso   1.00
Br266  Br    0.81213   0.40515   0.97016   0.00000  Uiso   1.00
Br267  Br    0.82284   0.40721   0.71386   0.00000  Uiso   1.00
Br268  Br    0.93327   0.75700   0.17031   0.00000  Uiso   1.00
Br269  Br    0.80084   0.61381   0.27516   0.00000  Uiso   1.00
Br270  Br    0.81177   0.73425   0.48425   0.00000  Uiso   1.00
Br271  Br    0.94182   0.76702   0.41823   0.00000  Uiso   1.00
Br272  Br    0.80945   0.72925   0.23385   0.00000  Uiso   1.00
Br273  Br    0.80362   0.60300   0.03831   0.00000  Uiso   1.00
Br274  Br    0.80235   0.61451   0.76567   0.00000  Uiso   1.00
Br275  Br    0.94522   0.76536   0.66630   0.00000  Uiso   1.00
Br276  Br    0.93060   0.75977   0.92559   0.00000  Uiso   1.00
Br277  Br    0.81150   0.72400   0.97259   0.00000  Uiso   1.00
Br278  Br    0.80180   0.60694   0.52652   0.00000  Uiso   1.00
Br279  Br    0.80779   0.72479   0.72840   0.00000  Uiso   1.00
Br280  Br    0.95435   0.87544   0.40925   0.00000  Uiso   1.00
Br281  Br    0.94529   0.88335   0.12128   0.00000  Uiso   1.00
Br282  Br    0.79920   0.94017   0.27771   0.00000  Uiso   1.00
Br283  Br    0.86061   0.99666   0.09674   0.00000  Uiso   1.00
Br284  Br    0.88159   0.84343   0.01734   0.00000  Uiso   1.00
Br285  Br    0.78988   0.96074   0.49358   0.00000  Uiso   1.00
Br286  Br    0.87641   0.98954   0.86482   0.00000  Uiso   1.00
Br287  Br    0.89304   0.97128   0.59337   0.00000  Uiso   1.00
Br288  Br    0.85876   0.86941   0.80652   0.00000  Uiso   1.00
H289   H     0.10535   0.03887   0.13282   0.00000  Uiso   1.00
H290   H     0.01500   0.04462   0.43636   0.00000  Uiso   1.00
H291   H     0.18916   0.05498   0.28377   0.00000  Uiso   1.00
H292   H     0.05929   0.10212   0.35153   0.00000  Uiso   1.00
H293   H     0.22306   0.12404   0.44593   0.00000  Uiso   1.00
H294   H     0.02331   0.03661   0.19106   0.00000  Uiso   1.00
H295   H     0.14445   0.12511   0.49748   0.00000  Uiso   1.00
H296   H     0.14827   0.12504   0.74643   0.00000  Uiso   1.00
H297   H     0.11325   0.03632   0.88710   0.00000  Uiso   1.00
H298   H     0.11377   0.03208   0.63186   0.00000  Uiso   1.00
H299   H     0.12432   0.18974   0.73769   0.00000  Uiso   1.00
H300   H     0.13977   0.12850   0.99535   0.00000  Uiso   1.00
H301   H     0.12400   0.18843   0.50184   0.00000  Uiso   1.00
H302   H     0.12821   0.19960   0.99530   0.00000  Uiso   1.00
H303   H     0.01690   0.29195   0.32230   0.00000  Uiso   1.00
H304   H     0.05821   0.22360   0.20779   0.00000  Uiso   1.00
H305   H     0.11962   0.30636   0.40079   0.00000  Uiso   1.00
H306   H     0.19186   0.27754   0.17011   0.00000  Uiso   1.00
H307   H     0.10721   0.37751   0.39803   0.00000  Uiso   1.00
H308   H     0.12202   0.35720   0.03520   0.00000  Uiso   1.00
H309   H     0.22335   0.20894   0.31777   0.00000  Uiso   1.00
H310   H     0.00747   0.38477   0.44832   0.00000  Uiso   1.00
H311   H     0.18680   0.38722   0.56616   0.00000  Uiso   1.00
H312   H     0.12587   0.31423   0.65853   0.00000  Uiso   1.00
H313   H     0.23506   0.21352   0.81721   0.00000  Uiso   1.00
H314   H     0.02046   0.38184   0.95202   0.00000  Uiso   1.00
H315   H     0.13064   0.31752   0.89858   0.00000  Uiso   1.00
H316   H     0.02354   0.29701   0.82363   0.00000  Uiso   1.00
H317   H     0.18840   0.38761   0.80438   0.00000  Uiso   1.00
H318   H     0.01497   0.38209   0.69659   0.00000  Uiso   1.00
H319   H     0.12691   0.47998   0.11648   0.00000  Uiso   1.00
H320   H     0.05946   0.55229   0.44127   0.00000  Uiso   1.00
H321   H     0.12851   0.53071   0.25733   0.00000  Uiso   1.00
H322   H     0.14624   0.45763   0.25070   0.00000  Uiso   1.00
H323   H     0.12680   0.52503   0.00648   0.00000  Uiso   1.00
H324   H     0.06369   0.45203   0.84634   0.00000  Uiso   1.00
H325   H     0.05817   0.44686   0.59091   0.00000  Uiso   1.00
H326   H     0.12852   0.52533   0.74579   0.00000  Uiso   1.00
H327   H     0.23781   0.54728   0.57599   0.00000  Uiso   1.00
H328   H     0.23130   0.54551   0.81892   0.00000  Uiso   1.00
H329   H     0.01675   0.71414   0.19832   0.00000  Uiso   1.00
H330   H     0.22860   0.78905   0.43995   0.00000  Uiso   1.00
H331   H     0.22798   0.79088   0.19826   0.00000  Uiso   1.00
H332   H     0.13051   0.68400   0.04560   0.00000  Uiso   1.00
H333   H     0.18748   0.73361   0.27972   0.00000  Uiso   1.00
H334   H     0.06020   0.77718   0.35806   0.00000  Uiso   1.00
H335   H     0.12050   0.63417   0.14181   0.00000  Uiso   1.00
H336   H     0.02608   0.70737   0.44529   0.00000  Uiso   1.00
H337   H     0.19427   0.61387   0.45933   0.00000  Uiso   1.00
H338   H     0.12175   0.64282   0.64865   0.00000  Uiso   1.00
H339   H     0.10226   0.71611   0.64926   0.00000  Uiso   1.00
H340   H     0.11215   0.63546   0.89427   0.00000  Uiso   1.00
H341   H     0.10785   0.70268   0.89263   0.00000  Uiso   1.00
H342   H     0.01832   0.71254   0.94953   0.00000  Uiso   1.00
H343   H     0.14305   0.79829   0.75789   0.00000  Uiso   1.00
H344   H     0.01631   0.61989   0.57248   0.00000  Uiso   1.00
H345   H     0.01532   0.71372   0.69421   0.00000  Uiso   1.00
H346   H     0.02297   0.62877   0.81900   0.00000  Uiso   1.00
H347   H     0.14160   0.79672   0.50091   0.00000  Uiso   1.00
H348   H     0.11623   0.97025   0.13522   0.00000  Uiso   1.00
H349   H     0.23042   0.88168   0.06851   0.00000  Uiso   1.00
H350   H     0.12342   0.97703   0.39505   0.00000  Uiso   1.00
H351   H     0.13423   0.86416   0.25392   0.00000  Uiso   1.00
H352   H     0.12205   0.81655   0.09613   0.00000  Uiso   1.00
H353   H     0.01850   0.95630   0.06827   0.00000  Uiso   1.00
H354   H     0.13072   0.85870   0.49012   0.00000  Uiso   1.00
H355   H     0.11032   0.96396   0.62232   0.00000  Uiso   1.00
H356   H     0.11740   0.84976   0.96695   0.00000  Uiso   1.00
H357   H     0.12802   0.98022   0.91491   0.00000  Uiso   1.00
H358   H     0.13473   0.86636   0.75676   0.00000  Uiso   1.00
H359   H     0.00652   0.95413   0.81550   0.00000  Uiso   1.00
H360   H     0.22816   0.87576   0.81690   0.00000  Uiso   1.00
H361   H     0.01107   0.95321   0.56706   0.00000  Uiso   1.00
H362   H     0.42476   0.07813   0.49032   0.00000  Uiso   1.00
H363   H     0.37457   0.02920   0.37408   0.00000  Uiso   1.00
H364   H     0.48383   0.04455   0.44621   0.00000  Uiso   1.00
H365   H     0.37031   0.14262   0.26742   0.00000  Uiso   1.00
H366   H     0.37710   0.02407   0.11351   0.00000  Uiso   1.00
H367   H     0.37186   0.14175   0.01471   0.00000  Uiso   1.00
H368   H     0.26261   0.11928   0.19516   0.00000  Uiso   1.00
H369   H     0.36652   0.19586   0.37944   0.00000  Uiso   1.00
H370   H     0.37439   0.18777   0.90476   0.00000  Uiso   1.00
H371   H     0.44133   0.10793   0.78177   0.00000  Uiso   1.00
H372   H     0.33667   0.09365   0.64284   0.00000  Uiso   1.00
H373   H     0.36513   0.19703   0.62858   0.00000  Uiso   1.00
H374   H     0.31431   0.06173   0.85212   0.00000  Uiso   1.00
H375   H     0.26870   0.12771   0.94193   0.00000  Uiso   1.00
H376   H     0.26793   0.12142   0.69472   0.00000  Uiso   1.00
H377   H     0.48184   0.38032   0.19161   0.00000  Uiso   1.00
H378   H     0.38671   0.36529   0.38029   0.00000  Uiso   1.00
H379   H     0.38002   0.29941   0.25193   0.00000  Uiso   1.00
H380   H     0.38541   0.36234   0.13350   0.00000  Uiso   1.00
H381   H     0.26084   0.21402   0.07074   0.00000  Uiso   1.00
H382   H     0.47818   0.28956   0.06931   0.00000  Uiso   1.00
H383   H     0.35774   0.20718   0.11847   0.00000  Uiso   1.00
H384   H     0.38222   0.30207   0.50285   0.00000  Uiso   1.00
H385   H     0.26900   0.20427   0.56658   0.00000  Uiso   1.00
H386   H     0.38142   0.30039   0.75153   0.00000  Uiso   1.00
H387   H     0.37779   0.30957   0.98926   0.00000  Uiso   1.00
H388   H     0.37686   0.35253   0.62429   0.00000  Uiso   1.00
H389   H     0.36758   0.34711   0.85304   0.00000  Uiso   1.00
H390   H     0.48750   0.28045   0.56961   0.00000  Uiso   1.00
H391   H     0.36966   0.47490   0.02519   0.00000  Uiso   1.00
H392   H     0.37397   0.47511   0.27414   0.00000  Uiso   1.00
H393   H     0.37190   0.52409   0.39987   0.00000  Uiso   1.00
H394   H     0.27252   0.54547   0.08085   0.00000  Uiso   1.00
H395   H     0.37859   0.52004   0.16357   0.00000  Uiso   1.00
H396   H     0.27382   0.45833   0.45074   0.00000  Uiso   1.00
H397   H     0.27187   0.54259   0.32387   0.00000  Uiso   1.00
H398   H     0.27105   0.45735   0.20027   0.00000  Uiso   1.00
H399   H     0.36910   0.46489   0.51047   0.00000  Uiso   1.00
H400   H     0.37421   0.52152   0.91621   0.00000  Uiso   1.00
H401   H     0.37542   0.47737   0.78992   0.00000  Uiso   1.00
H402   H     0.36584   0.53524   0.63255   0.00000  Uiso   1.00
H403   H     0.27479   0.45742   0.70412   0.00000  Uiso   1.00
H404   H     0.26294   0.45401   0.94914   0.00000  Uiso   1.00
H405   H     0.30762   0.72680   0.09877   0.00000  Uiso   1.00
H406   H     0.41560   0.73774   0.24371   0.00000  Uiso   1.00
H407   H     0.32960   0.76034   0.39674   0.00000  Uiso   1.00
H408   H     0.43879   0.77682   0.03701   0.00000  Uiso   1.00
H409   H     0.37784   0.64600   0.24160   0.00000  Uiso   1.00
H410   H     0.47887   0.62511   0.32167   0.00000  Uiso   1.00
H411   H     0.48910   0.71687   0.19758   0.00000  Uiso   1.00
H412   H     0.47954   0.62819   0.82364   0.00000  Uiso   1.00
H413   H     0.26657   0.78634   0.69469   0.00000  Uiso   1.00
H414   H     0.38216   0.63285   0.76418   0.00000  Uiso   1.00
H415   H     0.38104   0.69216   0.86806   0.00000  Uiso   1.00
H416   H     0.37846   0.68835   0.60543   0.00000  Uiso   1.00
H417   H     0.26491   0.78960   0.94530   0.00000  Uiso   1.00
H418   H     0.48604   0.71351   0.94616   0.00000  Uiso   1.00
H419   H     0.38201   0.64025   0.50240   0.00000  Uiso   1.00
H420   H     0.37057   0.65373   0.97126   0.00000  Uiso   1.00
H421   H     0.48477   0.62338   0.57174   0.00000  Uiso   1.00
H422   H     0.43228   0.90915   0.38123   0.00000  Uiso   1.00
H423   H     0.37262   0.85911   0.14828   0.00000  Uiso   1.00
H424   H     0.37205   0.98111   0.24195   0.00000  Uiso   1.00
H425   H     0.26921   0.87823   0.32035   0.00000  Uiso   1.00
H426   H     0.48118   0.95555   0.06778   0.00000  Uiso   1.00
H427   H     0.47671   0.96268   0.32190   0.00000  Uiso   1.00
H428   H     0.38260   0.97554   0.00352   0.00000  Uiso   1.00
H429   H     0.37348   0.81453   0.76987   0.00000  Uiso   1.00
H430   H     0.37215   0.85841   0.64447   0.00000  Uiso   1.00
H431   H     0.37903   0.97737   0.73786   0.00000  Uiso   1.00
H432   H     0.35919   0.87009   0.87992   0.00000  Uiso   1.00
H433   H     0.26343   0.88056   0.56955   0.00000  Uiso   1.00
H434   H     0.37511   0.81065   0.52347   0.00000  Uiso   1.00
H435   H     0.48403   0.95534   0.56799   0.00000  Uiso   1.00
H436   H     0.48754   0.95566   0.81626   0.00000  Uiso   1.00
H437   H     0.31999   0.92508   0.50993   0.00000  Uiso   1.00
H438   H     0.63463   0.13553   0.12803   0.00000  Uiso   1.00
H439   H     0.73501   0.12600   0.19283   0.00000  Uiso   1.00
H440   H     0.62878   0.13642   0.37402   0.00000  Uiso   1.00
H441   H     0.62043   0.02226   0.27065   0.00000  Uiso   1.00
H442   H     0.62639   0.18621   0.49664   0.00000  Uiso   1.00
H443   H     0.62371   0.02641   0.01298   0.00000  Uiso   1.00
H444   H     0.72480   0.12795   0.44211   0.00000  Uiso   1.00
H445   H     0.62957   0.18972   0.23781   0.00000  Uiso   1.00
H446   H     0.52542   0.04078   0.19320   0.00000  Uiso   1.00
H447   H     0.69476   0.05039   0.54731   0.00000  Uiso   1.00
H448   H     0.56680   0.10501   0.60052   0.00000  Uiso   1.00
H449   H     0.62841   0.14540   0.85751   0.00000  Uiso   1.00
H450   H     0.62375   0.02130   0.77563   0.00000  Uiso   1.00
H451   H     0.50738   0.04827   0.94559   0.00000  Uiso   1.00
H452   H     0.62964   0.19124   0.75146   0.00000  Uiso   1.00
H453   H     0.73720   0.12188   0.69810   0.00000  Uiso   1.00
H454   H     0.52376   0.04437   0.69205   0.00000  Uiso   1.00
H455   H     0.61919   0.31140   0.15042   0.00000  Uiso   1.00
H456   H     0.61822   0.35658   0.26747   0.00000  Uiso   1.00
H457   H     0.62350   0.30358   0.39419   0.00000  Uiso   1.00
H458   H     0.61828   0.35800   0.01967   0.00000  Uiso   1.00
H459   H     0.72685   0.20828   0.06766   0.00000  Uiso   1.00
H460   H     0.51406   0.37464   0.44593   0.00000  Uiso   1.00
H461   H     0.52178   0.28746   0.31853   0.00000  Uiso   1.00
H462   H     0.51926   0.28699   0.82331   0.00000  Uiso   1.00
H463   H     0.68544   0.26859   0.90705   0.00000  Uiso   1.00
H464   H     0.62312   0.30748   0.64833   0.00000  Uiso   1.00
H465   H     0.61810   0.35887   0.77621   0.00000  Uiso   1.00
H466   H     0.68781   0.38609   0.54070   0.00000  Uiso   1.00
H467   H     0.55868   0.22315   0.98671   0.00000  Uiso   1.00
H468   H     0.52151   0.36913   0.69376   0.00000  Uiso   1.00
H469   H     0.50503   0.37945   0.94637   0.00000  Uiso   1.00
H470   H     0.63287   0.53535   0.25794   0.00000  Uiso   1.00
H471   H     0.56125   0.56142   0.46985   0.00000  Uiso   1.00
H472   H     0.62743   0.47047   0.12655   0.00000  Uiso   1.00
H473   H     0.62848   0.47044   0.37344   0.00000  Uiso   1.00
H474   H     0.72291   0.45927   0.44536   0.00000  Uiso   1.00
H475   H     0.72578   0.54415   0.06791   0.00000  Uiso   1.00
H476   H     0.73242   0.54304   0.31755   0.00000  Uiso   1.00
H477   H     0.55982   0.43366   0.60927   0.00000  Uiso   1.00
H478   H     0.62584   0.47753   0.86587   0.00000  Uiso   1.00
H479   H     0.63252   0.53234   0.75635   0.00000  Uiso   1.00
H480   H     0.73346   0.54571   0.81435   0.00000  Uiso   1.00
H481   H     0.55775   0.55485   0.97075   0.00000  Uiso   1.00
H482   H     0.72651   0.45916   0.94339   0.00000  Uiso   1.00
H483   H     0.72542   0.53823   0.56473   0.00000  Uiso   1.00
H484   H     0.73534   0.44941   0.69094   0.00000  Uiso   1.00
H485   H     0.62311   0.68539   0.03492   0.00000  Uiso   1.00
H486   H     0.61923   0.68908   0.27380   0.00000  Uiso   1.00
H487   H     0.73367   0.78286   0.20011   0.00000  Uiso   1.00
H488   H     0.51230   0.62267   0.07081   0.00000  Uiso   1.00
H489   H     0.61526   0.63899   0.13736   0.00000  Uiso   1.00
H490   H     0.69153   0.61071   0.41250   0.00000  Uiso   1.00
H491   H     0.51802   0.70928   0.44204   0.00000  Uiso   1.00
H492   H     0.73957   0.78562   0.45402   0.00000  Uiso   1.00
H493   H     0.62316   0.69074   0.52719   0.00000  Uiso   1.00
H494   H     0.72659   0.78826   0.94298   0.00000  Uiso   1.00
H495   H     0.68837   0.60684   0.91126   0.00000  Uiso   1.00
H496   H     0.51350   0.71339   0.70118   0.00000  Uiso   1.00
H497   H     0.55839   0.77949   0.85129   0.00000  Uiso   1.00
H498   H     0.61446   0.63148   0.63288   0.00000  Uiso   1.00
H499   H     0.68402   0.72984   0.78219   0.00000  Uiso   1.00
H500   H     0.73559   0.78806   0.69662   0.00000  Uiso   1.00
H501   H     0.63947   0.87533   0.01639   0.00000  Uiso   1.00
H502   H     0.55822   0.89001   0.24036   0.00000  Uiso   1.00
H503   H     0.62176   0.96585   0.38859   0.00000  Uiso   1.00
H504   H     0.68522   0.93654   0.15927   0.00000  Uiso   1.00
H505   H     0.62521   0.81277   0.11335   0.00000  Uiso   1.00
H506   H     0.72208   0.86957   0.32186   0.00000  Uiso   1.00
H507   H     0.63044   0.80821   0.37521   0.00000  Uiso   1.00
H508   H     0.62444   0.85580   0.49411   0.00000  Uiso   1.00
H509   H     0.63218   0.97983   0.65706   0.00000  Uiso   1.00
H510   H     0.61341   0.95838   0.87103   0.00000  Uiso   1.00
H511   H     0.63260   0.85468   0.73672   0.00000  Uiso   1.00
H512   H     0.62671   0.81667   0.61397   0.00000  Uiso   1.00
H513   H     0.94148   0.10275   0.03273   0.00000  Uiso   1.00
H514   H     0.81041   0.06039   0.09369   0.00000  Uiso   1.00
H515   H     0.89359   0.04135   0.24675   0.00000  Uiso   1.00
H516   H     0.86663   0.19515   0.39401   0.00000  Uiso   1.00
H517   H     0.86080   0.12965   0.38662   0.00000  Uiso   1.00
H518   H     0.86615   0.19725   0.14532   0.00000  Uiso   1.00
H519   H     0.89076   0.04380   0.49955   0.00000  Uiso   1.00
H520   H     0.77451   0.12403   0.94942   0.00000  Uiso   1.00
H521   H     0.89366   0.03835   0.76018   0.00000  Uiso   1.00
H522   H     0.85748   0.13066   0.64034   0.00000  Uiso   1.00
H523   H     0.86410   0.13973   0.88137   0.00000  Uiso   1.00
H524   H     0.97633   0.04072   0.94417   0.00000  Uiso   1.00
H525   H     0.87275   0.19615   0.64263   0.00000  Uiso   1.00
H526   H     0.99289   0.04899   0.68747   0.00000  Uiso   1.00
H527   H     0.88603   0.30682   0.25399   0.00000  Uiso   1.00
H528   H     0.97515   0.29664   0.06672   0.00000  Uiso   1.00
H529   H     0.89139   0.36962   0.25441   0.00000  Uiso   1.00
H530   H     0.98405   0.38218   0.19937   0.00000  Uiso   1.00
H531   H     0.76791   0.21123   0.32723   0.00000  Uiso   1.00
H532   H     0.88765   0.29093   0.02154   0.00000  Uiso   1.00
H533   H     0.87391   0.31587   0.48751   0.00000  Uiso   1.00
H534   H     0.85814   0.21482   0.86913   0.00000  Uiso   1.00
H535   H     0.76975   0.21034   0.57165   0.00000  Uiso   1.00
H536   H     0.87868   0.30839   0.75344   0.00000  Uiso   1.00
H537   H     0.97679   0.29207   0.57294   0.00000  Uiso   1.00
H538   H     0.89730   0.37872   0.74816   0.00000  Uiso   1.00
H539   H     0.76589   0.21132   0.81935   0.00000  Uiso   1.00
H540   H     0.81112   0.39414   0.59733   0.00000  Uiso   1.00
H541   H     0.89565   0.38310   0.99355   0.00000  Uiso   1.00
H542   H     0.84946   0.46069   0.14267   0.00000  Uiso   1.00
H543   H     0.86953   0.52716   0.14515   0.00000  Uiso   1.00
H544   H     0.85158   0.46580   0.38656   0.00000  Uiso   1.00
H545   H     0.86511   0.53374   0.38109   0.00000  Uiso   1.00
H546   H     0.76370   0.45529   0.19073   0.00000  Uiso   1.00
H547   H     0.94343   0.44375   0.53748   0.00000  Uiso   1.00
H548   H     0.84862   0.45867   0.89401   0.00000  Uiso   1.00
H549   H     0.86364   0.53672   0.87945   0.00000  Uiso   1.00
H550   H     0.87213   0.52129   0.64911   0.00000  Uiso   1.00
H551   H     0.88417   0.63150   0.01418   0.00000  Uiso   1.00
H552   H     0.88067   0.63786   0.26098   0.00000  Uiso   1.00
H553   H     0.89317   0.70532   0.25185   0.00000  Uiso   1.00
H554   H     0.98459   0.61933   0.07428   0.00000  Uiso   1.00
H555   H     0.97846   0.62574   0.32155   0.00000  Uiso   1.00
H556   H     0.85842   0.78866   0.39778   0.00000  Uiso   1.00
H557   H     0.85201   0.78303   0.14697   0.00000  Uiso   1.00
H558   H     0.88424   0.63763   0.74841   0.00000  Uiso   1.00
H559   H     0.86435   0.79595   0.64648   0.00000  Uiso   1.00
H560   H     0.85207   0.78408   0.89968   0.00000  Uiso   1.00
H561   H     0.88965   0.70207   0.75667   0.00000  Uiso   1.00
H562   H     0.89250   0.70300   0.99807   0.00000  Uiso   1.00
H563   H     0.88147   0.63685   0.50368   0.00000  Uiso   1.00
H564   H     0.88994   0.70532   0.50441   0.00000  Uiso   1.00
H565   H     0.87636   0.97147   0.24948   0.00000  Uiso   1.00
H566   H     0.77311   0.87213   0.07200   0.00000  Uiso   1.00
H567   H     0.87399   0.85447   0.41320   0.00000  Uiso   1.00
H568   H     0.86909   0.85658   0.14846   0.00000  Uiso   1.00
H569   H     0.97690   0.95744   0.31450   0.00000  Uiso   1.00
H570   H     0.87291   0.97903   0.48477   0.00000  Uiso   1.00
H571   H     0.82617   0.92421   0.62739   0.00000  Uiso   1.00
H572   H     0.92339   0.91968   0.77527   0.00000  Uiso   1.00
H573   H     0.81319   0.93379   0.89018   0.00000  Uiso   1.00
H574   H     0.77022   0.87997   0.57670   0.00000  Uiso   1.00
H575   H     0.76197   0.87908   0.82865   0.00000  Uiso   1.00
H576   H     0.93290   0.90063   0.99422   0.00000  Uiso   1.00
C577   C     0.11304   0.05898   0.10332   0.00000  Uiso   1.00
C578   C     0.15094   0.07581   0.10311   0.00000  Uiso   1.00
C579   C     0.09634   0.08842   0.02232   0.00000  Uiso   1.00
C580   C     0.13290   0.10872   0.02487   0.00000  Uiso   1.00
C581   C     0.05149   0.04075   0.06130   0.00000  Uiso   1.00
C582   C     0.08668   0.06363   0.06157   0.00000  Uiso   1.00
C583   C     0.19498   0.12570   0.06560   0.00000  Uiso   1.00
C584   C     0.16038   0.10131   0.06262   0.00000  Uiso   1.00
C585   C     0.08744   0.09168   0.33775   0.00000  Uiso   1.00
C586   C     0.12098   0.11328   0.34226   0.00000  Uiso   1.00
C587   C     0.12766   0.04477   0.29689   0.00000  Uiso   1.00
C588   C     0.16127   0.06737   0.29437   0.00000  Uiso   1.00
C589   C     0.05577   0.03446   0.31353   0.00000  Uiso   1.00
C590   C     0.09154   0.05760   0.31474   0.00000  Uiso   1.00
C591   C     0.19198   0.12705   0.32104   0.00000  Uiso   1.00
C592   C     0.15848   0.10181   0.32049   0.00000  Uiso   1.00
C593   C     0.11910   0.05377   0.60392   0.00000  Uiso   1.00
C594   C     0.15402   0.07399   0.60627   0.00000  Uiso   1.00
C595   C     0.10154   0.08473   0.52568   0.00000  Uiso   1.00
C596   C     0.13825   0.10363   0.52609   0.00000  Uiso   1.00
C597   C     0.05492   0.03918   0.56298   0.00000  Uiso   1.00
C598   C     0.09267   0.06084   0.56467   0.00000  Uiso   1.00
C599   C     0.19859   0.12055   0.57263   0.00000  Uiso   1.00
C600   C     0.16339   0.10023   0.56775   0.00000  Uiso   1.00
C601   C     0.12052   0.05711   0.85827   0.00000  Uiso   1.00
C602   C     0.15689   0.07732   0.85973   0.00000  Uiso   1.00
C603   C     0.10457   0.08613   0.77389   0.00000  Uiso   1.00
C604   C     0.14134   0.10476   0.77652   0.00000  Uiso   1.00
C605   C     0.05817   0.03873   0.81339   0.00000  Uiso   1.00
C606   C     0.09450   0.06049   0.81443   0.00000  Uiso   1.00
C607   C     0.20205   0.12603   0.82244   0.00000  Uiso   1.00
C608   C     0.16740   0.10141   0.81895   0.00000  Uiso   1.00
C609   C     0.11744   0.39543   0.36609   0.00000  Uiso   1.00
C610   C     0.12281   0.38315   0.05240   0.00000  Uiso   1.00
C611   C     0.19507   0.20479   0.19392   0.00000  Uiso   1.00
C612   C     0.12163   0.21150   0.20133   0.00000  Uiso   1.00
C613   C     0.08763   0.23482   0.20248   0.00000  Uiso   1.00
C614   C     0.15897   0.22724   0.18876   0.00000  Uiso   1.00
C615   C     0.05583   0.29917   0.19363   0.00000  Uiso   1.00
C616   C     0.09165   0.27338   0.19276   0.00000  Uiso   1.00
C617   C     0.16334   0.26534   0.17944   0.00000  Uiso   1.00
C618   C     0.12960   0.28784   0.17958   0.00000  Uiso   1.00
C619   C     0.05217   0.37942   0.06998   0.00000  Uiso   1.00
C620   C     0.15524   0.25914   0.41978   0.00000  Uiso   1.00
C621   C     0.12023   0.28100   0.42257   0.00000  Uiso   1.00
C622   C     0.15729   0.22590   0.45071   0.00000  Uiso   1.00
C623   C     0.05066   0.29095   0.44695   0.00000  Uiso   1.00
C624   C     0.08654   0.26959   0.44926   0.00000  Uiso   1.00
C625   C     0.12479   0.21591   0.48246   0.00000  Uiso   1.00
C626   C     0.08923   0.23466   0.47584   0.00000  Uiso   1.00
C627   C     0.05477   0.37527   0.32299   0.00000  Uiso   1.00
C628   C     0.19260   0.20102   0.44706   0.00000  Uiso   1.00
C629   C     0.09066   0.39749   0.32395   0.00000  Uiso   1.00
C630   C     0.12600   0.38264   0.80588   0.00000  Uiso   1.00
C631   C     0.12437   0.38026   0.55972   0.00000  Uiso   1.00
C632   C     0.16281   0.26909   0.92035   0.00000  Uiso   1.00
C633   C     0.05224   0.38020   0.81519   0.00000  Uiso   1.00
C634   C     0.09359   0.24454   0.97096   0.00000  Uiso   1.00
C635   C     0.15787   0.26459   0.66910   0.00000  Uiso   1.00
C636   C     0.12302   0.28564   0.66996   0.00000  Uiso   1.00
C637   C     0.15809   0.22866   0.68951   0.00000  Uiso   1.00
C638   C     0.05127   0.29590   0.69294   0.00000  Uiso   1.00
C639   C     0.08758   0.27261   0.69132   0.00000  Uiso   1.00
C640   C     0.12245   0.21710   0.71690   0.00000  Uiso   1.00
C641   C     0.08951   0.24038   0.71916   0.00000  Uiso   1.00
C642   C     0.05127   0.37638   0.56759   0.00000  Uiso   1.00
C643   C     0.08859   0.39815   0.56944   0.00000  Uiso   1.00
C644   C     0.12968   0.29265   0.92231   0.00000  Uiso   1.00
C645   C     0.16191   0.23450   0.94649   0.00000  Uiso   1.00
C646   C     0.05672   0.30277   0.94413   0.00000  Uiso   1.00
C647   C     0.09394   0.28070   0.94811   0.00000  Uiso   1.00
C648   C     0.12913   0.22468   0.97503   0.00000  Uiso   1.00
C649   C     0.19685   0.21068   0.94679   0.00000  Uiso   1.00
C650   C     0.19427   0.20601   0.69234   0.00000  Uiso   1.00
C651   C     0.14017   0.43803   0.28066   0.00000  Uiso   1.00
C652   C     0.15321   0.41369   0.36733   0.00000  Uiso   1.00
C653   C     0.08782   0.43693   0.09096   0.00000  Uiso   1.00
C654   C     0.10324   0.42089   0.28093   0.00000  Uiso   1.00
C655   C     0.15874   0.59491   0.17246   0.00000  Uiso   1.00
C656   C     0.12493   0.45468   0.09437   0.00000  Uiso   1.00
C657   C     0.19719   0.53909   0.20426   0.00000  Uiso   1.00
C658   C     0.16098   0.56253   0.20278   0.00000  Uiso   1.00
C659   C     0.16434   0.43536   0.32455   0.00000  Uiso   1.00
C660   C     0.20036   0.45953   0.32740   0.00000  Uiso   1.00
C661   C     0.12660   0.55276   0.23024   0.00000  Uiso   1.00
C662   C     0.09093   0.57176   0.23035   0.00000  Uiso   1.00
C663   C     0.19750   0.46205   0.07727   0.00000  Uiso   1.00
C664   C     0.16048   0.44008   0.07564   0.00000  Uiso   1.00
C665   C     0.12446   0.54315   0.44340   0.00000  Uiso   1.00
C666   C     0.08977   0.56392   0.44248   0.00000  Uiso   1.00
C667   C     0.19939   0.54281   0.45340   0.00000  Uiso   1.00
C668   C     0.16187   0.56183   0.44920   0.00000  Uiso   1.00
C669   C     0.15869   0.40429   0.05391   0.00000  Uiso   1.00
C670   C     0.08803   0.40012   0.07031   0.00000  Uiso   1.00
C671   C     0.09081   0.43763   0.83453   0.00000  Uiso   1.00
C672   C     0.15466   0.59605   0.92374   0.00000  Uiso   1.00
C673   C     0.08659   0.56950   0.97996   0.00000  Uiso   1.00
C674   C     0.16197   0.44016   0.82571   0.00000  Uiso   1.00
C675   C     0.19887   0.46072   0.82966   0.00000  Uiso   1.00
C676   C     0.16160   0.40206   0.81252   0.00000  Uiso   1.00
C677   C     0.12239   0.45752   0.57721   0.00000  Uiso   1.00
C678   C     0.19615   0.53925   0.70156   0.00000  Uiso   1.00
C679   C     0.16227   0.56471   0.70260   0.00000  Uiso   1.00
C680   C     0.12907   0.55170   0.72992   0.00000  Uiso   1.00
C681   C     0.09439   0.57040   0.72993   0.00000  Uiso   1.00
C682   C     0.19777   0.45760   0.57673   0.00000  Uiso   1.00
C683   C     0.15908   0.43948   0.57164   0.00000  Uiso   1.00
C684   C     0.12498   0.45614   0.84125   0.00000  Uiso   1.00
C685   C     0.19622   0.54274   0.95496   0.00000  Uiso   1.00
C686   C     0.15866   0.56334   0.95238   0.00000  Uiso   1.00
C687   C     0.08785   0.43594   0.57860   0.00000  Uiso   1.00
C688   C     0.12379   0.55112   0.98340   0.00000  Uiso   1.00
C689   C     0.16035   0.59624   0.67304   0.00000  Uiso   1.00
C690   C     0.08947   0.40090   0.81716   0.00000  Uiso   1.00
C691   C     0.08332   0.59915   0.94800   0.00000  Uiso   1.00
C692   C     0.15868   0.40162   0.56289   0.00000  Uiso   1.00
C693   C     0.12878   0.62131   0.45344   0.00000  Uiso   1.00
C694   C     0.12224   0.61268   0.16610   0.00000  Uiso   1.00
C695   C     0.05298   0.62620   0.19305   0.00000  Uiso   1.00
C696   C     0.12717   0.71227   0.05954   0.00000  Uiso   1.00
C697   C     0.16404   0.73324   0.05907   0.00000  Uiso   1.00
C698   C     0.08727   0.76664   0.08166   0.00000  Uiso   1.00
C699   C     0.12343   0.78648   0.08664   0.00000  Uiso   1.00
C700   C     0.05464   0.70550   0.06888   0.00000  Uiso   1.00
C701   C     0.09079   0.72827   0.07099   0.00000  Uiso   1.00
C702   C     0.16110   0.77102   0.07221   0.00000  Uiso   1.00
C703   C     0.05649   0.62402   0.44478   0.00000  Uiso   1.00
C704   C     0.08792   0.76810   0.34226   0.00000  Uiso   1.00
C705   C     0.12056   0.79201   0.34140   0.00000  Uiso   1.00
C706   C     0.12853   0.71951   0.29945   0.00000  Uiso   1.00
C707   C     0.16006   0.74436   0.29926   0.00000  Uiso   1.00
C708   C     0.05571   0.70500   0.31518   0.00000  Uiso   1.00
C709   C     0.09035   0.73131   0.31841   0.00000  Uiso   1.00
C710   C     0.15649   0.78003   0.32004   0.00000  Uiso   1.00
C711   C     0.19657   0.79577   0.07077   0.00000  Uiso   1.00
C712   C     0.09178   0.60199   0.44863   0.00000  Uiso   1.00
C713   C     0.16431   0.60053   0.45339   0.00000  Uiso   1.00
C714   C     0.08707   0.60196   0.19498   0.00000  Uiso   1.00
C715   C     0.11627   0.61193   0.92008   0.00000  Uiso   1.00
C716   C     0.19695   0.79075   0.57483   0.00000  Uiso   1.00
C717   C     0.05352   0.62410   0.69076   0.00000  Uiso   1.00
C718   C     0.11043   0.73374   0.61457   0.00000  Uiso   1.00
C719   C     0.14953   0.74704   0.61456   0.00000  Uiso   1.00
C720   C     0.09558   0.76216   0.53168   0.00000  Uiso   1.00
C721   C     0.13331   0.77893   0.53256   0.00000  Uiso   1.00
C722   C     0.05460   0.70754   0.56845   0.00000  Uiso   1.00
C723   C     0.08516   0.73676   0.57142   0.00000  Uiso   1.00
C724   C     0.16074   0.76980   0.57262   0.00000  Uiso   1.00
C725   C     0.04843   0.61987   0.94473   0.00000  Uiso   1.00
C726   C     0.11654   0.72486   0.86295   0.00000  Uiso   1.00
C727   C     0.15570   0.73903   0.86142   0.00000  Uiso   1.00
C728   C     0.10049   0.75790   0.78363   0.00000  Uiso   1.00
C729   C     0.13869   0.77547   0.78608   0.00000  Uiso   1.00
C730   C     0.05310   0.70977   0.82021   0.00000  Uiso   1.00
C731   C     0.08856   0.73233   0.82244   0.00000  Uiso   1.00
C732   C     0.16826   0.76470   0.82216   0.00000  Uiso   1.00
C733   C     0.12274   0.61510   0.66847   0.00000  Uiso   1.00
C734   C     0.09020   0.60182   0.69544   0.00000  Uiso   1.00
C735   C     0.20367   0.78761   0.82409   0.00000  Uiso   1.00
C736   C     0.15484   0.92809   0.16480   0.00000  Uiso   1.00
C737   C     0.11801   0.94556   0.15981   0.00000  Uiso   1.00
C738   C     0.19678   0.87702   0.19798   0.00000  Uiso   1.00
C739   C     0.15948   0.89790   0.19872   0.00000  Uiso   1.00
C740   C     0.04726   0.95358   0.18696   0.00000  Uiso   1.00
C741   C     0.08537   0.93307   0.18983   0.00000  Uiso   1.00
C742   C     0.12734   0.88595   0.22741   0.00000  Uiso   1.00
C743   C     0.08940   0.90106   0.22164   0.00000  Uiso   1.00
C744   C     0.16122   0.93335   0.41896   0.00000  Uiso   1.00
C745   C     0.12500   0.95046   0.41709   0.00000  Uiso   1.00
C746   C     0.20232   0.87905   0.44896   0.00000  Uiso   1.00
C747   C     0.16470   0.90077   0.44908   0.00000  Uiso   1.00
C748   C     0.05261   0.95858   0.43840   0.00000  Uiso   1.00
C749   C     0.09082   0.93759   0.44210   0.00000  Uiso   1.00
C750   C     0.09422   0.90483   0.47290   0.00000  Uiso   1.00
C751   C     0.13053   0.88622   0.47507   0.00000  Uiso   1.00
C752   C     0.19118   0.80372   0.32092   0.00000  Uiso   1.00
C753   C     0.08576   0.89784   0.95295   0.00000  Uiso   1.00
C754   C     0.15359   0.92542   0.65661   0.00000  Uiso   1.00
C755   C     0.11544   0.94208   0.65206   0.00000  Uiso   1.00
C756   C     0.19958   0.87594   0.69749   0.00000  Uiso   1.00
C757   C     0.16076   0.89549   0.69044   0.00000  Uiso   1.00
C758   C     0.04981   0.95735   0.68695   0.00000  Uiso   1.00
C759   C     0.08487   0.93412   0.68850   0.00000  Uiso   1.00
C760   C     0.12941   0.88680   0.72592   0.00000  Uiso   1.00
C761   C     0.09258   0.90581   0.72233   0.00000  Uiso   1.00
C762   C     0.15917   0.93199   0.93096   0.00000  Uiso   1.00
C763   C     0.12514   0.95268   0.92682   0.00000  Uiso   1.00
C764   C     0.19203   0.87098   0.94554   0.00000  Uiso   1.00
C765   C     0.15689   0.89394   0.94246   0.00000  Uiso   1.00
C766   C     0.05006   0.95738   0.93773   0.00000  Uiso   1.00
C767   C     0.08753   0.93566   0.93788   0.00000  Uiso   1.00
C768   C     0.11958   0.87831   0.95585   0.00000  Uiso   1.00
C769   C     0.34295   0.06816   0.08703   0.00000  Uiso   1.00
C770   C     0.37908   0.05111   0.09249   0.00000  Uiso   1.00
C771   C     0.30130   0.12370   0.06252   0.00000  Uiso   1.00
C772   C     0.33962   0.10226   0.06180   0.00000  Uiso   1.00
C773   C     0.44753   0.03985   0.06645   0.00000  Uiso   1.00
C774   C     0.41170   0.06239   0.06357   0.00000  Uiso   1.00
C775   C     0.37201   0.11597   0.03483   0.00000  Uiso   1.00
C776   C     0.40827   0.09704   0.03611   0.00000  Uiso   1.00
C777   C     0.34069   0.07167   0.34383   0.00000  Uiso   1.00
C778   C     0.37689   0.05343   0.34958   0.00000  Uiso   1.00
C779   C     0.29913   0.12388   0.31677   0.00000  Uiso   1.00
C780   C     0.33710   0.10286   0.31615   0.00000  Uiso   1.00
C781   C     0.44700   0.03984   0.32381   0.00000  Uiso   1.00
C782   C     0.41060   0.06577   0.32364   0.00000  Uiso   1.00
C783   C     0.37136   0.11577   0.28803   0.00000  Uiso   1.00
C784   C     0.40754   0.09717   0.29017   0.00000  Uiso   1.00
C785   C     0.37062   0.10381   0.51851   0.00000  Uiso   1.00
C786   C     0.40652   0.08371   0.52368   0.00000  Uiso   1.00
C787   C     0.30594   0.12854   0.56109   0.00000  Uiso   1.00
C788   C     0.34311   0.10690   0.56211   0.00000  Uiso   1.00
C789   C     0.45144   0.04206   0.57153   0.00000  Uiso   1.00
C790   C     0.41715   0.06844   0.57086   0.00000  Uiso   1.00
C791   C     0.35463   0.09074   0.61037   0.00000  Uiso   1.00
C792   C     0.39114   0.07245   0.61500   0.00000  Uiso   1.00
C793   C     0.38101   0.12270   0.80068   0.00000  Uiso   1.00
C794   C     0.41497   0.09853   0.79900   0.00000  Uiso   1.00
C795   C     0.30657   0.12944   0.81471   0.00000  Uiso   1.00
C796   C     0.34345   0.10741   0.81465   0.00000  Uiso   1.00
C797   C     0.44944   0.04029   0.81916   0.00000  Uiso   1.00
C798   C     0.41392   0.06397   0.81954   0.00000  Uiso   1.00
C799   C     0.34183   0.07051   0.83447   0.00000  Uiso   1.00
C800   C     0.37719   0.04914   0.83767   0.00000  Uiso   1.00
C801   C     0.38048   0.38523   0.10654   0.00000  Uiso   1.00
C802   C     0.36208   0.22625   0.14990   0.00000  Uiso   1.00
C803   C     0.38343   0.38826   0.35571   0.00000  Uiso   1.00
C804   C     0.37814   0.27866   0.47533   0.00000  Uiso   1.00
C805   C     0.37641   0.27799   0.22673   0.00000  Uiso   1.00
C806   C     0.34001   0.25993   0.22823   0.00000  Uiso   1.00
C807   C     0.39977   0.24212   0.15232   0.00000  Uiso   1.00
C808   C     0.44547   0.28900   0.19625   0.00000  Uiso   1.00
C809   C     0.40766   0.26725   0.19251   0.00000  Uiso   1.00
C810   C     0.33309   0.23340   0.18922   0.00000  Uiso   1.00
C811   C     0.44802   0.37218   0.07355   0.00000  Uiso   1.00
C812   C     0.41613   0.39951   0.32609   0.00000  Uiso   1.00
C813   C     0.30245   0.20378   0.44138   0.00000  Uiso   1.00
C814   C     0.40428   0.24247   0.40195   0.00000  Uiso   1.00
C815   C     0.36912   0.22137   0.40357   0.00000  Uiso   1.00
C816   C     0.44739   0.29016   0.44646   0.00000  Uiso   1.00
C817   C     0.41023   0.26964   0.44105   0.00000  Uiso   1.00
C818   C     0.33806   0.22770   0.44048   0.00000  Uiso   1.00
C819   C     0.44992   0.37399   0.32473   0.00000  Uiso   1.00
C820   C     0.34352   0.25736   0.47628   0.00000  Uiso   1.00
C821   C     0.29778   0.20926   0.18756   0.00000  Uiso   1.00
C822   C     0.41181   0.39694   0.07322   0.00000  Uiso   1.00
C823   C     0.30205   0.21085   0.94220   0.00000  Uiso   1.00
C824   C     0.30005   0.20904   0.68560   0.00000  Uiso   1.00
C825   C     0.34254   0.26310   0.97259   0.00000  Uiso   1.00
C826   C     0.37735   0.27892   0.72135   0.00000  Uiso   1.00
C827   C     0.33990   0.26333   0.71791   0.00000  Uiso   1.00
C828   C     0.40578   0.23587   0.66051   0.00000  Uiso   1.00
C829   C     0.36762   0.22088   0.65262   0.00000  Uiso   1.00
C830   C     0.44825   0.28755   0.69643   0.00000  Uiso   1.00
C831   C     0.41046   0.26582   0.69306   0.00000  Uiso   1.00
C832   C     0.33553   0.23330   0.68406   0.00000  Uiso   1.00
C833   C     0.44733   0.36457   0.57286   0.00000  Uiso   1.00
C834   C     0.37796   0.28347   0.97092   0.00000  Uiso   1.00
C835   C     0.37789   0.37797   0.60105   0.00000  Uiso   1.00
C836   C     0.41165   0.23253   0.92705   0.00000  Uiso   1.00
C837   C     0.37500   0.21376   0.92469   0.00000  Uiso   1.00
C838   C     0.44783   0.29143   0.95049   0.00000  Uiso   1.00
C839   C     0.41232   0.26715   0.95034   0.00000  Uiso   1.00
C840   C     0.34019   0.22911   0.94786   0.00000  Uiso   1.00
C841   C     0.44231   0.36644   0.82192   0.00000  Uiso   1.00
C842   C     0.36950   0.37594   0.84221   0.00000  Uiso   1.00
C843   C     0.34203   0.39826   0.59931   0.00000  Uiso   1.00
C844   C     0.40656   0.39026   0.82386   0.00000  Uiso   1.00
C845   C     0.33673   0.39852   0.84695   0.00000  Uiso   1.00
C846   C     0.41131   0.39010   0.57337   0.00000  Uiso   1.00
C847   C     0.41214   0.56803   0.42295   0.00000  Uiso   1.00
C848   C     0.41317   0.43108   0.29644   0.00000  Uiso   1.00
C849   C     0.37851   0.54749   0.18039   0.00000  Uiso   1.00
C850   C     0.37118   0.44683   0.04130   0.00000  Uiso   1.00
C851   C     0.34282   0.43828   0.32507   0.00000  Uiso   1.00
C852   C     0.37509   0.55029   0.42336   0.00000  Uiso   1.00
C853   C     0.34291   0.40331   0.10443   0.00000  Uiso   1.00
C854   C     0.30267   0.45819   0.07043   0.00000  Uiso   1.00
C855   C     0.33811   0.43469   0.06910   0.00000  Uiso   1.00
C856   C     0.40750   0.42664   0.03989   0.00000  Uiso   1.00
C857   C     0.30629   0.53913   0.45085   0.00000  Uiso   1.00
C858   C     0.34233   0.56036   0.45547   0.00000  Uiso   1.00
C859   C     0.41342   0.56787   0.17843   0.00000  Uiso   1.00
C860   C     0.30673   0.53875   0.19913   0.00000  Uiso   1.00
C861   C     0.34247   0.56215   0.19864   0.00000  Uiso   1.00
C862   C     0.37491   0.44963   0.29519   0.00000  Uiso   1.00
C863   C     0.30486   0.46022   0.32381   0.00000  Uiso   1.00
C864   C     0.34500   0.59305   0.48509   0.00000  Uiso   1.00
C865   C     0.34689   0.40651   0.35610   0.00000  Uiso   1.00
C866   C     0.34218   0.59801   0.22193   0.00000  Uiso   1.00
C867   C     0.40822   0.42670   0.80465   0.00000  Uiso   1.00
C868   C     0.36665   0.55701   0.66097   0.00000  Uiso   1.00
C869   C     0.40343   0.57580   0.66239   0.00000  Uiso   1.00
C870   C     0.37513   0.55021   0.93077   0.00000  Uiso   1.00
C871   C     0.37476   0.44914   0.80431   0.00000  Uiso   1.00
C872   C     0.34011   0.56613   0.94760   0.00000  Uiso   1.00
C873   C     0.30334   0.46060   0.82404   0.00000  Uiso   1.00
C874   C     0.41035   0.57022   0.93332   0.00000  Uiso   1.00
C875   C     0.30178   0.45499   0.57088   0.00000  Uiso   1.00
C876   C     0.33897   0.43110   0.56883   0.00000  Uiso   1.00
C877   C     0.30450   0.54233   0.94947   0.00000  Uiso   1.00
C878   C     0.37209   0.44391   0.54182   0.00000  Uiso   1.00
C879   C     0.40912   0.42410   0.54439   0.00000  Uiso   1.00
C880   C     0.30127   0.53961   0.69868   0.00000  Uiso   1.00
C881   C     0.33758   0.56362   0.69897   0.00000  Uiso   1.00
C882   C     0.33768   0.43488   0.82644   0.00000  Uiso   1.00
C883   C     0.34209   0.59180   0.73581   0.00000  Uiso   1.00
C884   C     0.37816   0.61780   0.22429   0.00000  Uiso   1.00
C885   C     0.38101   0.61500   0.48173   0.00000  Uiso   1.00
C886   C     0.29794   0.79196   0.31527   0.00000  Uiso   1.00
C887   C     0.44897   0.62679   0.20195   0.00000  Uiso   1.00
C888   C     0.37495   0.78685   0.04911   0.00000  Uiso   1.00
C889   C     0.40955   0.76585   0.04760   0.00000  Uiso   1.00
C890   C     0.33867   0.77239   0.06781   0.00000  Uiso   1.00
C891   C     0.44540   0.70998   0.07557   0.00000  Uiso   1.00
C892   C     0.40891   0.73203   0.07431   0.00000  Uiso   1.00
C893   C     0.33665   0.73597   0.08292   0.00000  Uiso   1.00
C894   C     0.37221   0.71652   0.09055   0.00000  Uiso   1.00
C895   C     0.44996   0.62415   0.45058   0.00000  Uiso   1.00
C896   C     0.36020   0.76235   0.27180   0.00000  Uiso   1.00
C897   C     0.39600   0.74206   0.27760   0.00000  Uiso   1.00
C898   C     0.33451   0.76810   0.31568   0.00000  Uiso   1.00
C899   C     0.44337   0.70472   0.32660   0.00000  Uiso   1.00
C900   C     0.40626   0.72699   0.32518   0.00000  Uiso   1.00
C901   C     0.34379   0.75279   0.36270   0.00000  Uiso   1.00
C902   C     0.37934   0.73091   0.36815   0.00000  Uiso   1.00
C903   C     0.41228   0.60288   0.20260   0.00000  Uiso   1.00
C904   C     0.30239   0.79724   0.06680   0.00000  Uiso   1.00
C905   C     0.41425   0.60147   0.45046   0.00000  Uiso   1.00
C906   C     0.30420   0.79576   0.56826   0.00000  Uiso   1.00
C907   C     0.40839   0.60403   0.70000   0.00000  Uiso   1.00
C908   C     0.44533   0.62764   0.70103   0.00000  Uiso   1.00
C909   C     0.33960   0.73512   0.59158   0.00000  Uiso   1.00
C910   C     0.37608   0.71659   0.59209   0.00000  Uiso   1.00
C911   C     0.33918   0.77243   0.57189   0.00000  Uiso   1.00
C912   C     0.44778   0.70995   0.57453   0.00000  Uiso   1.00
C913   C     0.41128   0.73145   0.57258   0.00000  Uiso   1.00
C914   C     0.37517   0.78711   0.55010   0.00000  Uiso   1.00
C915   C     0.41148   0.76698   0.55081   0.00000  Uiso   1.00
C916   C     0.44604   0.63145   0.94750   0.00000  Uiso   1.00
C917   C     0.40908   0.60806   0.94659   0.00000  Uiso   1.00
C918   C     0.34282   0.73956   0.83951   0.00000  Uiso   1.00
C919   C     0.37925   0.71862   0.84363   0.00000  Uiso   1.00
C920   C     0.37223   0.62498   0.96058   0.00000  Uiso   1.00
C921   C     0.34220   0.77320   0.81496   0.00000  Uiso   1.00
C922   C     0.45082   0.71138   0.82560   0.00000  Uiso   1.00
C923   C     0.41408   0.73165   0.81896   0.00000  Uiso   1.00
C924   C     0.37683   0.78686   0.79031   0.00000  Uiso   1.00
C925   C     0.41283   0.76690   0.79486   0.00000  Uiso   1.00
C926   C     0.37718   0.61132   0.73535   0.00000  Uiso   1.00
C927   C     0.30691   0.79806   0.81598   0.00000  Uiso   1.00
C928   C     0.33802   0.60264   0.96721   0.00000  Uiso   1.00
C929   C     0.40660   0.91350   0.40622   0.00000  Uiso   1.00
C930   C     0.34405   0.92226   0.48015   0.00000  Uiso   1.00
C931   C     0.37119   0.89278   0.40161   0.00000  Uiso   1.00
C932   C     0.37334   0.95407   0.22310   0.00000  Uiso   1.00
C933   C     0.33737   0.93276   0.22118   0.00000  Uiso   1.00
C934   C     0.40813   0.90789   0.16879   0.00000  Uiso   1.00
C935   C     0.37158   0.88773   0.16479   0.00000  Uiso   1.00
C936   C     0.44433   0.96327   0.19793   0.00000  Uiso   1.00
C937   C     0.40777   0.94186   0.19766   0.00000  Uiso   1.00
C938   C     0.30141   0.87555   0.18975   0.00000  Uiso   1.00
C939   C     0.33652   0.89863   0.19168   0.00000  Uiso   1.00
C940   C     0.44949   0.96170   0.44862   0.00000  Uiso   1.00
C941   C     0.41242   0.93793   0.44779   0.00000  Uiso   1.00
C942   C     0.30450   0.87128   0.44268   0.00000  Uiso   1.00
C943   C     0.34125   0.89428   0.44191   0.00000  Uiso   1.00
C944   C     0.37954   0.94136   0.48377   0.00000  Uiso   1.00
C945   C     0.37761   0.95165   0.97500   0.00000  Uiso   1.00
C946   C     0.38029   0.95006   0.72385   0.00000  Uiso   1.00
C947   C     0.34463   0.93047   0.72418   0.00000  Uiso   1.00
C948   C     0.41136   0.90128   0.66874   0.00000  Uiso   1.00
C949   C     0.37578   0.88216   0.66969   0.00000  Uiso   1.00
C950   C     0.45159   0.95813   0.69789   0.00000  Uiso   1.00
C951   C     0.41512   0.93496   0.69894   0.00000  Uiso   1.00
C952   C     0.30367   0.87600   0.69012   0.00000  Uiso   1.00
C953   C     0.34146   0.89697   0.69564   0.00000  Uiso   1.00
C954   C     0.34029   0.93268   0.97410   0.00000  Uiso   1.00
C955   C     0.40308   0.90778   0.91068   0.00000  Uiso   1.00
C956   C     0.36480   0.89204   0.90581   0.00000  Uiso   1.00
C957   C     0.44640   0.95919   0.94241   0.00000  Uiso   1.00
C958   C     0.40777   0.94024   0.94066   0.00000  Uiso   1.00
C959   C     0.29825   0.88054   0.94269   0.00000  Uiso   1.00
C960   C     0.33417   0.90278   0.94004   0.00000  Uiso   1.00
C961   C     0.62459   0.05159   0.03642   0.00000  Uiso   1.00
C962   C     0.66119   0.07089   0.03764   0.00000  Uiso   1.00
C963   C     0.59451   0.09371   0.09934   0.00000  Uiso   1.00
C964   C     0.63081   0.11134   0.10368   0.00000  Uiso   1.00
C965   C     0.55641   0.03851   0.06420   0.00000  Uiso   1.00
C966   C     0.59180   0.06219   0.06688   0.00000  Uiso   1.00
C967   C     0.70135   0.12506   0.07486   0.00000  Uiso   1.00
C968   C     0.66523   0.10064   0.07335   0.00000  Uiso   1.00
C969   C     0.62347   0.04841   0.29099   0.00000  Uiso   1.00
C970   C     0.65993   0.07012   0.28942   0.00000  Uiso   1.00
C971   C     0.59008   0.09590   0.34346   0.00000  Uiso   1.00
C972   C     0.62750   0.11397   0.34809   0.00000  Uiso   1.00
C973   C     0.55469   0.03915   0.31630   0.00000  Uiso   1.00
C974   C     0.58901   0.06342   0.31542   0.00000  Uiso   1.00
C975   C     0.69788   0.12438   0.32127   0.00000  Uiso   1.00
C976   C     0.66244   0.10217   0.31973   0.00000  Uiso   1.00
C977   C     0.59415   0.09332   0.58677   0.00000  Uiso   1.00
C978   C     0.62697   0.11582   0.58939   0.00000  Uiso   1.00
C979   C     0.63262   0.04212   0.55462   0.00000  Uiso   1.00
C980   C     0.66657   0.06472   0.55486   0.00000  Uiso   1.00
C981   C     0.56011   0.03695   0.56414   0.00000  Uiso   1.00
C982   C     0.59573   0.05849   0.56529   0.00000  Uiso   1.00
C983   C     0.69841   0.12490   0.57390   0.00000  Uiso   1.00
C984   C     0.66491   0.10010   0.57383   0.00000  Uiso   1.00
C985   C     0.62507   0.04845   0.79446   0.00000  Uiso   1.00
C986   C     0.66099   0.06648   0.79670   0.00000  Uiso   1.00
C987   C     0.59287   0.09828   0.83860   0.00000  Uiso   1.00
C988   C     0.62961   0.11627   0.84522   0.00000  Uiso   1.00
C989   C     0.55485   0.04150   0.81587   0.00000  Uiso   1.00
C990   C     0.59040   0.06450   0.81595   0.00000  Uiso   1.00
C991   C     0.70059   0.12129   0.82563   0.00000  Uiso   1.00
C992   C     0.66408   0.09967   0.82495   0.00000  Uiso   1.00
C993   C     0.69588   0.20241   0.45072   0.00000  Uiso   1.00
C994   C     0.61951   0.38503   0.03990   0.00000  Uiso   1.00
C995   C     0.59037   0.23278   0.47211   0.00000  Uiso   1.00
C996   C     0.61940   0.38186   0.28956   0.00000  Uiso   1.00
C997   C     0.65997   0.26634   0.17202   0.00000  Uiso   1.00
C998   C     0.62181   0.28393   0.16821   0.00000  Uiso   1.00
C999   C     0.69817   0.21201   0.20068   0.00000  Uiso   1.00
C1000  C     0.66176   0.23371   0.19932   0.00000  Uiso   1.00
C1001  C     0.55297   0.29100   0.19196   0.00000  Uiso   1.00
C1002  C     0.58790   0.26899   0.19417   0.00000  Uiso   1.00
C1003  C     0.62745   0.21743   0.22279   0.00000  Uiso   1.00
C1004  C     0.59020   0.23563   0.22270   0.00000  Uiso   1.00
C1005  C     0.54953   0.37453   0.06703   0.00000  Uiso   1.00
C1006  C     0.65910   0.25724   0.42064   0.00000  Uiso   1.00
C1007  C     0.62378   0.27742   0.41630   0.00000  Uiso   1.00
C1008  C     0.65836   0.22214   0.44505   0.00000  Uiso   1.00
C1009  C     0.55183   0.28623   0.44376   0.00000  Uiso   1.00
C1010  C     0.58930   0.26506   0.44261   0.00000  Uiso   1.00
C1011  C     0.62295   0.21055   0.47068   0.00000  Uiso   1.00
C1012  C     0.55045   0.37301   0.31521   0.00000  Uiso   1.00
C1013  C     0.58649   0.39559   0.31494   0.00000  Uiso   1.00
C1014  C     0.58564   0.39767   0.06834   0.00000  Uiso   1.00
C1015  C     0.62039   0.20940   0.96767   0.00000  Uiso   1.00
C1016  C     0.62295   0.27937   0.91995   0.00000  Uiso   1.00
C1017  C     0.62737   0.37663   0.55157   0.00000  Uiso   1.00
C1018  C     0.54973   0.37387   0.81888   0.00000  Uiso   1.00
C1019  C     0.69927   0.20521   0.69745   0.00000  Uiso   1.00
C1020  C     0.66092   0.26229   0.67327   0.00000  Uiso   1.00
C1021  C     0.62586   0.28320   0.67279   0.00000  Uiso   1.00
C1022  C     0.66328   0.22732   0.69997   0.00000  Uiso   1.00
C1023  C     0.55493   0.29040   0.69429   0.00000  Uiso   1.00
C1024  C     0.59110   0.26829   0.69657   0.00000  Uiso   1.00
C1025  C     0.62860   0.21745   0.72996   0.00000  Uiso   1.00
C1026  C     0.59364   0.23745   0.72831   0.00000  Uiso   1.00
C1027  C     0.55404   0.36600   0.57027   0.00000  Uiso   1.00
C1028  C     0.65777   0.25697   0.92227   0.00000  Uiso   1.00
C1029  C     0.58586   0.23075   0.96610   0.00000  Uiso   1.00
C1030  C     0.65626   0.22165   0.94645   0.00000  Uiso   1.00
C1031  C     0.55139   0.28979   0.94325   0.00000  Uiso   1.00
C1032  C     0.58660   0.26619   0.94223   0.00000  Uiso   1.00
C1033  C     0.58547   0.39815   0.81831   0.00000  Uiso   1.00
C1034  C     0.61946   0.38590   0.79224   0.00000  Uiso   1.00
C1035  C     0.58954   0.38960   0.57140   0.00000  Uiso   1.00
C1036  C     0.69428   0.20024   0.94574   0.00000  Uiso   1.00
C1037  C     0.66045   0.39922   0.55171   0.00000  Uiso   1.00
C1038  C     0.58762   0.42955   0.34293   0.00000  Uiso   1.00
C1039  C     0.58887   0.42769   0.10145   0.00000  Uiso   1.00
C1040  C     0.62853   0.55784   0.23333   0.00000  Uiso   1.00
C1041  C     0.69480   0.45630   0.32059   0.00000  Uiso   1.00
C1042  C     0.62294   0.54825   0.46011   0.00000  Uiso   1.00
C1043  C     0.65723   0.43581   0.31637   0.00000  Uiso   1.00
C1044  C     0.69678   0.54362   0.19968   0.00000  Uiso   1.00
C1045  C     0.65938   0.56682   0.19841   0.00000  Uiso   1.00
C1046  C     0.59075   0.57176   0.46388   0.00000  Uiso   1.00
C1047  C     0.59187   0.57449   0.22773   0.00000  Uiso   1.00
C1048  C     0.62505   0.44493   0.10533   0.00000  Uiso   1.00
C1049  C     0.69550   0.45789   0.07353   0.00000  Uiso   1.00
C1050  C     0.65827   0.43488   0.07388   0.00000  Uiso   1.00
C1051  C     0.65365   0.59632   0.16364   0.00000  Uiso   1.00
C1052  C     0.69448   0.53732   0.44356   0.00000  Uiso   1.00
C1053  C     0.66074   0.56131   0.44240   0.00000  Uiso   1.00
C1054  C     0.62395   0.44746   0.34554   0.00000  Uiso   1.00
C1055  C     0.65496   0.40206   0.28836   0.00000  Uiso   1.00
C1056  C     0.65541   0.40506   0.04125   0.00000  Uiso   1.00
C1057  C     0.66342   0.59925   0.42779   0.00000  Uiso   1.00
C1058  C     0.62215   0.54596   0.96350   0.00000  Uiso   1.00
C1059  C     0.58767   0.56741   0.96206   0.00000  Uiso   1.00
C1060  C     0.62025   0.44837   0.59305   0.00000  Uiso   1.00
C1061  C     0.59266   0.57154   0.72811   0.00000  Uiso   1.00
C1062  C     0.58916   0.43195   0.84657   0.00000  Uiso   1.00
C1063  C     0.69551   0.46100   0.81920   0.00000  Uiso   1.00
C1064  C     0.69836   0.54054   0.69563   0.00000  Uiso   1.00
C1065  C     0.66081   0.56037   0.69149   0.00000  Uiso   1.00
C1066  C     0.58786   0.42412   0.59343   0.00000  Uiso   1.00
C1067  C     0.66048   0.59801   0.92773   0.00000  Uiso   1.00
C1068  C     0.62874   0.55323   0.72828   0.00000  Uiso   1.00
C1069  C     0.69436   0.46036   0.57072   0.00000  Uiso   1.00
C1070  C     0.65795   0.43603   0.56985   0.00000  Uiso   1.00
C1071  C     0.62417   0.45070   0.84577   0.00000  Uiso   1.00
C1072  C     0.69506   0.54023   0.94474   0.00000  Uiso   1.00
C1073  C     0.65814   0.56095   0.94307   0.00000  Uiso   1.00
C1074  C     0.65928   0.43744   0.82036   0.00000  Uiso   1.00
C1075  C     0.65412   0.58810   0.65473   0.00000  Uiso   1.00
C1076  C     0.65611   0.40443   0.79482   0.00000  Uiso   1.00
C1077  C     0.58686   0.59994   0.69220   0.00000  Uiso   1.00
C1078  C     0.69923   0.78734   0.32717   0.00000  Uiso   1.00
C1079  C     0.62750   0.78352   0.35066   0.00000  Uiso   1.00
C1080  C     0.58638   0.60393   0.19257   0.00000  Uiso   1.00
C1081  C     0.54983   0.62566   0.19287   0.00000  Uiso   1.00
C1082  C     0.62526   0.71324   0.05108   0.00000  Uiso   1.00
C1083  C     0.65951   0.73395   0.05212   0.00000  Uiso   1.00
C1084  C     0.58940   0.76327   0.09718   0.00000  Uiso   1.00
C1085  C     0.62453   0.78422   0.09518   0.00000  Uiso   1.00
C1086  C     0.55554   0.70475   0.07372   0.00000  Uiso   1.00
C1087  C     0.59054   0.72772   0.07641   0.00000  Uiso   1.00
C1088  C     0.65893   0.77033   0.07027   0.00000  Uiso   1.00
C1089  C     0.55705   0.63138   0.44724   0.00000  Uiso   1.00
C1090  C     0.62157   0.71414   0.29616   0.00000  Uiso   1.00
C1091  C     0.65742   0.73230   0.30050   0.00000  Uiso   1.00
C1092  C     0.59222   0.76237   0.35351   0.00000  Uiso   1.00
C1093  C     0.55156   0.70933   0.31858   0.00000  Uiso   1.00
C1094  C     0.58956   0.72739   0.32517   0.00000  Uiso   1.00
C1095  C     0.59319   0.60948   0.44899   0.00000  Uiso   1.00
C1096  C     0.66106   0.76585   0.32542   0.00000  Uiso   1.00
C1097  C     0.69615   0.79164   0.07194   0.00000  Uiso   1.00
C1098  C     0.63097   0.62277   0.43600   0.00000  Uiso   1.00
C1099  C     0.61730   0.61487   0.16087   0.00000  Uiso   1.00
C1100  C     0.54934   0.62303   0.69263   0.00000  Uiso   1.00
C1101  C     0.62292   0.71696   0.54706   0.00000  Uiso   1.00
C1102  C     0.65939   0.73556   0.55351   0.00000  Uiso   1.00
C1103  C     0.59155   0.76637   0.59777   0.00000  Uiso   1.00
C1104  C     0.62560   0.78793   0.59635   0.00000  Uiso   1.00
C1105  C     0.55261   0.71154   0.56836   0.00000  Uiso   1.00
C1106  C     0.58923   0.73110   0.57145   0.00000  Uiso   1.00
C1107  C     0.62717   0.62140   0.93528   0.00000  Uiso   1.00
C1108  C     0.66119   0.77192   0.57584   0.00000  Uiso   1.00
C1109  C     0.55339   0.62735   0.94681   0.00000  Uiso   1.00
C1110  C     0.58585   0.76671   0.83901   0.00000  Uiso   1.00
C1111  C     0.61976   0.78737   0.84189   0.00000  Uiso   1.00
C1112  C     0.62273   0.71804   0.79415   0.00000  Uiso   1.00
C1113  C     0.65669   0.74117   0.79740   0.00000  Uiso   1.00
C1114  C     0.55206   0.70794   0.81780   0.00000  Uiso   1.00
C1115  C     0.58676   0.73128   0.81808   0.00000  Uiso   1.00
C1116  C     0.65512   0.77582   0.81730   0.00000  Uiso   1.00
C1117  C     0.61642   0.60793   0.65646   0.00000  Uiso   1.00
C1118  C     0.69405   0.79523   0.82510   0.00000  Uiso   1.00
C1119  C     0.58997   0.60456   0.94945   0.00000  Uiso   1.00
C1120  C     0.69772   0.79421   0.57893   0.00000  Uiso   1.00
C1121  C     0.58770   0.90026   0.47091   0.00000  Uiso   1.00
C1122  C     0.62015   0.87640   0.21635   0.00000  Uiso   1.00
C1123  C     0.58636   0.89799   0.22051   0.00000  Uiso   1.00
C1124  C     0.69411   0.86805   0.20009   0.00000  Uiso   1.00
C1125  C     0.65734   0.89004   0.19789   0.00000  Uiso   1.00
C1126  C     0.55094   0.95784   0.19308   0.00000  Uiso   1.00
C1127  C     0.58677   0.93427   0.19680   0.00000  Uiso   1.00
C1128  C     0.65800   0.92530   0.17245   0.00000  Uiso   1.00
C1129  C     0.62282   0.94604   0.17153   0.00000  Uiso   1.00
C1130  C     0.65739   0.92369   0.41870   0.00000  Uiso   1.00
C1131  C     0.62169   0.94227   0.41106   0.00000  Uiso   1.00
C1132  C     0.69453   0.87037   0.45022   0.00000  Uiso   1.00
C1133  C     0.65781   0.89200   0.44960   0.00000  Uiso   1.00
C1134  C     0.55312   0.95706   0.43720   0.00000  Uiso   1.00
C1135  C     0.58605   0.93231   0.43714   0.00000  Uiso   1.00
C1136  C     0.62358   0.88240   0.47701   0.00000  Uiso   1.00
C1137  C     0.66752   0.93378   0.68202   0.00000  Uiso   1.00
C1138  C     0.63142   0.95482   0.67958   0.00000  Uiso   1.00
C1139  C     0.70106   0.87591   0.70345   0.00000  Uiso   1.00
C1140  C     0.66606   0.89806   0.70059   0.00000  Uiso   1.00
C1141  C     0.55704   0.95939   0.69024   0.00000  Uiso   1.00
C1142  C     0.59389   0.93742   0.69743   0.00000  Uiso   1.00
C1143  C     0.63175   0.88292   0.72080   0.00000  Uiso   1.00
C1144  C     0.59589   0.90221   0.72170   0.00000  Uiso   1.00
C1145  C     0.65837   0.92224   0.90664   0.00000  Uiso   1.00
C1146  C     0.61947   0.93811   0.90246   0.00000  Uiso   1.00
C1147  C     0.70277   0.87564   0.95301   0.00000  Uiso   1.00
C1148  C     0.66604   0.89784   0.94834   0.00000  Uiso   1.00
C1149  C     0.55190   0.95428   0.93775   0.00000  Uiso   1.00
C1150  C     0.58853   0.93191   0.93759   0.00000  Uiso   1.00
C1151  C     0.63405   0.89284   0.98399   0.00000  Uiso   1.00
C1152  C     0.59615   0.90867   0.97949   0.00000  Uiso   1.00
C1153  C     0.87966   0.12066   0.04789   0.00000  Uiso   1.00
C1154  C     0.91216   0.09559   0.04652   0.00000  Uiso   1.00
C1155  C     0.80668   0.13116   0.06992   0.00000  Uiso   1.00
C1156  C     0.84264   0.10834   0.07023   0.00000  Uiso   1.00
C1157  C     0.94325   0.03646   0.06559   0.00000  Uiso   1.00
C1158  C     0.90761   0.06012   0.06537   0.00000  Uiso   1.00
C1159  C     0.83833   0.07129   0.08491   0.00000  Uiso   1.00
C1160  C     0.86988   0.04677   0.08228   0.00000  Uiso   1.00
C1161  C     0.84755   0.07467   0.27999   0.00000  Uiso   1.00
C1162  C     0.88533   0.06054   0.27499   0.00000  Uiso   1.00
C1163  C     0.80225   0.12415   0.31809   0.00000  Uiso   1.00
C1164  C     0.83932   0.10195   0.31833   0.00000  Uiso   1.00
C1165  C     0.95012   0.04138   0.31548   0.00000  Uiso   1.00
C1166  C     0.91427   0.06625   0.31378   0.00000  Uiso   1.00
C1167  C     0.86732   0.10958   0.35546   0.00000  Uiso   1.00
C1168  C     0.90488   0.09306   0.35377   0.00000  Uiso   1.00
C1169  C     0.84891   0.08094   0.52829   0.00000  Uiso   1.00
C1170  C     0.88562   0.06535   0.52869   0.00000  Uiso   1.00
C1171  C     0.80352   0.12566   0.56912   0.00000  Uiso   1.00
C1172  C     0.83808   0.10398   0.57049   0.00000  Uiso   1.00
C1173  C     0.94858   0.04533   0.57052   0.00000  Uiso   1.00
C1174  C     0.91124   0.06830   0.57142   0.00000  Uiso   1.00
C1175  C     0.86495   0.11052   0.61014   0.00000  Uiso   1.00
C1176  C     0.90155   0.09285   0.61129   0.00000  Uiso   1.00
C1177  C     0.85215   0.08263   0.77890   0.00000  Uiso   1.00
C1178  C     0.88980   0.06485   0.78019   0.00000  Uiso   1.00
C1179  C     0.80635   0.12849   0.81808   0.00000  Uiso   1.00
C1180  C     0.84390   0.10854   0.81796   0.00000  Uiso   1.00
C1181  C     0.95514   0.05076   0.81624   0.00000  Uiso   1.00
C1182  C     0.91979   0.07576   0.81463   0.00000  Uiso   1.00
C1183  C     0.87396   0.12040   0.85036   0.00000  Uiso   1.00
C1184  C     0.91209   0.10482   0.84750   0.00000  Uiso   1.00
C1185  C     0.79959   0.20841   0.44399   0.00000  Uiso   1.00
C1186  C     0.83740   0.26760   0.46986   0.00000  Uiso   1.00
C1187  C     0.88259   0.28322   0.23089   0.00000  Uiso   1.00
C1188  C     0.87353   0.28762   0.47125   0.00000  Uiso   1.00
C1189  C     0.90697   0.24056   0.16422   0.00000  Uiso   1.00
C1190  C     0.87194   0.22130   0.16927   0.00000  Uiso   1.00
C1191  C     0.94807   0.29560   0.19917   0.00000  Uiso   1.00
C1192  C     0.91373   0.27101   0.20029   0.00000  Uiso   1.00
C1193  C     0.83947   0.23417   0.19910   0.00000  Uiso   1.00
C1194  C     0.94750   0.38032   0.07451   0.00000  Uiso   1.00
C1195  C     0.84556   0.26606   0.22968   0.00000  Uiso   1.00
C1196  C     0.90363   0.23940   0.41804   0.00000  Uiso   1.00
C1197  C     0.86789   0.21902   0.41806   0.00000  Uiso   1.00
C1198  C     0.94443   0.29601   0.44646   0.00000  Uiso   1.00
C1199  C     0.90660   0.27343   0.44678   0.00000  Uiso   1.00
C1200  C     0.83471   0.23177   0.44589   0.00000  Uiso   1.00
C1201  C     0.94980   0.38175   0.32481   0.00000  Uiso   1.00
C1202  C     0.80320   0.21309   0.19576   0.00000  Uiso   1.00
C1203  C     0.88403   0.39026   0.28502   0.00000  Uiso   1.00
C1204  C     0.88531   0.39934   0.02781   0.00000  Uiso   1.00
C1205  C     0.87308   0.22142   0.66828   0.00000  Uiso   1.00
C1206  C     0.80224   0.21007   0.94278   0.00000  Uiso   1.00
C1207  C     0.87334   0.38136   0.58650   0.00000  Uiso   1.00
C1208  C     0.80195   0.21024   0.69190   0.00000  Uiso   1.00
C1209  C     0.87619   0.28494   0.72863   0.00000  Uiso   1.00
C1210  C     0.83940   0.26749   0.72303   0.00000  Uiso   1.00
C1211  C     0.90845   0.24275   0.66945   0.00000  Uiso   1.00
C1212  C     0.94604   0.29684   0.70160   0.00000  Uiso   1.00
C1213  C     0.91034   0.27402   0.69841   0.00000  Uiso   1.00
C1214  C     0.83757   0.23562   0.69302   0.00000  Uiso   1.00
C1215  C     0.94785   0.37561   0.57288   0.00000  Uiso   1.00
C1216  C     0.88219   0.27848   0.98463   0.00000  Uiso   1.00
C1217  C     0.84667   0.25899   0.98476   0.00000  Uiso   1.00
C1218  C     0.89940   0.25483   0.90053   0.00000  Uiso   1.00
C1219  C     0.86466   0.23380   0.90137   0.00000  Uiso   1.00
C1220  C     0.94524   0.30090   0.94562   0.00000  Uiso   1.00
C1221  C     0.90973   0.27729   0.94411   0.00000  Uiso   1.00
C1222  C     0.83721   0.23603   0.94231   0.00000  Uiso   1.00
C1223  C     0.94987   0.37819   0.82659   0.00000  Uiso   1.00
C1224  C     0.90990   0.39604   0.56677   0.00000  Uiso   1.00
C1225  C     0.88862   0.39608   0.77892   0.00000  Uiso   1.00
C1226  C     0.89916   0.42614   0.36375   0.00000  Uiso   1.00
C1227  C     0.86879   0.55509   0.40695   0.00000  Uiso   1.00
C1228  C     0.90724   0.57199   0.16849   0.00000  Uiso   1.00
C1229  C     0.87192   0.55278   0.16682   0.00000  Uiso   1.00
C1230  C     0.84810   0.41845   0.02494   0.00000  Uiso   1.00
C1231  C     0.90606   0.57193   0.41210   0.00000  Uiso   1.00
C1232  C     0.80192   0.53691   0.44037   0.00000  Uiso   1.00
C1233  C     0.83563   0.43482   0.31841   0.00000  Uiso   1.00
C1234  C     0.79773   0.45945   0.06374   0.00000  Uiso   1.00
C1235  C     0.83585   0.44004   0.06567   0.00000  Uiso   1.00
C1236  C     0.85941   0.44323   0.11116   0.00000  Uiso   1.00
C1237  C     0.83619   0.56346   0.43851   0.00000  Uiso   1.00
C1238  C     0.89680   0.42600   0.11411   0.00000  Uiso   1.00
C1239  C     0.80042   0.54123   0.19238   0.00000  Uiso   1.00
C1240  C     0.83755   0.56566   0.19552   0.00000  Uiso   1.00
C1241  C     0.84448   0.40504   0.28299   0.00000  Uiso   1.00
C1242  C     0.86159   0.44444   0.35846   0.00000  Uiso   1.00
C1243  C     0.79893   0.45494   0.31401   0.00000  Uiso   1.00
C1244  C     0.84088   0.59727   0.22930   0.00000  Uiso   1.00
C1245  C     0.84050   0.59206   0.47493   0.00000  Uiso   1.00
C1246  C     0.90974   0.40283   0.07246   0.00000  Uiso   1.00
C1247  C     0.91141   0.40127   0.32416   0.00000  Uiso   1.00
C1248  C     0.86656   0.55692   0.90936   0.00000  Uiso   1.00
C1249  C     0.84259   0.59061   0.98546   0.00000  Uiso   1.00
C1250  C     0.83771   0.56306   0.94618   0.00000  Uiso   1.00
C1251  C     0.90049   0.42396   0.86464   0.00000  Uiso   1.00
C1252  C     0.83848   0.43543   0.81890   0.00000  Uiso   1.00
C1253  C     0.91251   0.43258   0.54674   0.00000  Uiso   1.00
C1254  C     0.87683   0.45506   0.54392   0.00000  Uiso   1.00
C1255  C     0.91136   0.56953   0.66725   0.00000  Uiso   1.00
C1256  C     0.90161   0.57851   0.90671   0.00000  Uiso   1.00
C1257  C     0.80490   0.46170   0.56455   0.00000  Uiso   1.00
C1258  C     0.84017   0.44008   0.56316   0.00000  Uiso   1.00
C1259  C     0.80116   0.54040   0.94395   0.00000  Uiso   1.00
C1260  C     0.86178   0.44010   0.86241   0.00000  Uiso   1.00
C1261  C     0.80428   0.53940   0.68897   0.00000  Uiso   1.00
C1262  C     0.84218   0.56019   0.69576   0.00000  Uiso   1.00
C1263  C     0.87526   0.54888   0.66967   0.00000  Uiso   1.00
C1264  C     0.85191   0.41454   0.77644   0.00000  Uiso   1.00
C1265  C     0.80006   0.45590   0.81592   0.00000  Uiso   1.00
C1266  C     0.84585   0.59408   0.72470   0.00000  Uiso   1.00
C1267  C     0.83811   0.40335   0.58167   0.00000  Uiso   1.00
C1268  C     0.91407   0.40031   0.82449   0.00000  Uiso   1.00
C1269  C     0.87705   0.61643   0.23083   0.00000  Uiso   1.00
C1270  C     0.87616   0.61308   0.47577   0.00000  Uiso   1.00
C1271  C     0.90957   0.60506   0.19867   0.00000  Uiso   1.00
C1272  C     0.94597   0.62924   0.19853   0.00000  Uiso   1.00
C1273  C     0.84695   0.74092   0.02567   0.00000  Uiso   1.00
C1274  C     0.88478   0.72197   0.02968   0.00000  Uiso   1.00
C1275  C     0.83642   0.76282   0.06889   0.00000  Uiso   1.00
C1276  C     0.94621   0.70512   0.07279   0.00000  Uiso   1.00
C1277  C     0.90863   0.72677   0.07240   0.00000  Uiso   1.00
C1278  C     0.86058   0.76581   0.11287   0.00000  Uiso   1.00
C1279  C     0.89798   0.74922   0.11324   0.00000  Uiso   1.00
C1280  C     0.94658   0.62532   0.44628   0.00000  Uiso   1.00
C1281  C     0.80009   0.78389   0.06777   0.00000  Uiso   1.00
C1282  C     0.85051   0.74419   0.28181   0.00000  Uiso   1.00
C1283  C     0.88786   0.72642   0.27983   0.00000  Uiso   1.00
C1284  C     0.84087   0.76869   0.32240   0.00000  Uiso   1.00
C1285  C     0.95175   0.70898   0.32434   0.00000  Uiso   1.00
C1286  C     0.91477   0.73271   0.31991   0.00000  Uiso   1.00
C1287  C     0.86741   0.77443   0.36349   0.00000  Uiso   1.00
C1288  C     0.90264   0.75282   0.36473   0.00000  Uiso   1.00
C1289  C     0.80417   0.79047   0.32208   0.00000  Uiso   1.00
C1290  C     0.91058   0.60302   0.44589   0.00000  Uiso   1.00
C1291  C     0.87739   0.61203   0.98203   0.00000  Uiso   1.00
C1292  C     0.80308   0.79483   0.57127   0.00000  Uiso   1.00
C1293  C     0.94852   0.62462   0.70057   0.00000  Uiso   1.00
C1294  C     0.80091   0.78535   0.82013   0.00000  Uiso   1.00
C1295  C     0.84968   0.74600   0.53258   0.00000  Uiso   1.00
C1296  C     0.88608   0.72643   0.53413   0.00000  Uiso   1.00
C1297  C     0.83994   0.77202   0.57162   0.00000  Uiso   1.00
C1298  C     0.94829   0.70658   0.57135   0.00000  Uiso   1.00
C1299  C     0.91264   0.73142   0.57330   0.00000  Uiso   1.00
C1300  C     0.86890   0.77720   0.61397   0.00000  Uiso   1.00
C1301  C     0.90389   0.75575   0.61460   0.00000  Uiso   1.00
C1302  C     0.94383   0.62702   0.94999   0.00000  Uiso   1.00
C1303  C     0.84509   0.73719   0.78400   0.00000  Uiso   1.00
C1304  C     0.88213   0.72220   0.78739   0.00000  Uiso   1.00
C1305  C     0.83505   0.76143   0.82402   0.00000  Uiso   1.00
C1306  C     0.94897   0.71036   0.82528   0.00000  Uiso   1.00
C1307  C     0.90923   0.72904   0.82634   0.00000  Uiso   1.00
C1308  C     0.86000   0.76576   0.86673   0.00000  Uiso   1.00
C1309  C     0.89579   0.74980   0.86943   0.00000  Uiso   1.00
C1310  C     0.90744   0.60397   0.94646   0.00000  Uiso   1.00
C1311  C     0.88068   0.61417   0.72638   0.00000  Uiso   1.00
C1312  C     0.91358   0.60051   0.69863   0.00000  Uiso   1.00
C1313  C     0.87484   0.94607   0.22764   0.00000  Uiso   1.00
C1314  C     0.84025   0.92391   0.23108   0.00000  Uiso   1.00
C1315  C     0.90626   0.90244   0.16615   0.00000  Uiso   1.00
C1316  C     0.87045   0.88297   0.16890   0.00000  Uiso   1.00
C1317  C     0.94246   0.96117   0.19453   0.00000  Uiso   1.00
C1318  C     0.90795   0.93656   0.19406   0.00000  Uiso   1.00
C1319  C     0.80293   0.86866   0.19626   0.00000  Uiso   1.00
C1320  C     0.83738   0.89261   0.19882   0.00000  Uiso   1.00
C1321  C     0.87087   0.95441   0.46232   0.00000  Uiso   1.00
C1322  C     0.83552   0.93533   0.46361   0.00000  Uiso   1.00
C1323  C     0.90603   0.90314   0.41899   0.00000  Uiso   1.00
C1324  C     0.87088   0.88323   0.42524   0.00000  Uiso   1.00
C1325  C     0.94511   0.96139   0.44310   0.00000  Uiso   1.00
C1326  C     0.90538   0.94012   0.43886   0.00000  Uiso   1.00
C1327  C     0.79963   0.87793   0.44478   0.00000  Uiso   1.00
C1328  C     0.83604   0.89851   0.44641   0.00000  Uiso   1.00
C1329  C     0.90624   0.90729   0.97108   0.00000  Uiso   1.00
C1330  C     0.87244   0.88408   0.97487   0.00000  Uiso   1.00
C1331  C     0.90461   0.91752   0.74065   0.00000  Uiso   1.00
C1332  C     0.87059   0.89502   0.74305   0.00000  Uiso   1.00
C1333  C     0.88447   0.93891   0.65391   0.00000  Uiso   1.00
C1334  C     0.84947   0.91880   0.65818   0.00000  Uiso   1.00
C1335  C     0.94783   0.96242   0.69258   0.00000  Uiso   1.00
C1336  C     0.91283   0.93819   0.69411   0.00000  Uiso   1.00
C1337  C     0.80288   0.87424   0.69851   0.00000  Uiso   1.00
C1338  C     0.84142   0.89620   0.70081   0.00000  Uiso   1.00
C1339  C     0.87703   0.94415   0.90540   0.00000  Uiso   1.00
C1340  C     0.84203   0.92401   0.91061   0.00000  Uiso   1.00
C1341  C     0.94492   0.96096   0.93993   0.00000  Uiso   1.00
C1342  C     0.90934   0.93667   0.93776   0.00000  Uiso   1.00
C1343  C     0.80475   0.86921   0.94467   0.00000  Uiso   1.00
C1344  C     0.83975   0.89219   0.94451   0.00000  Uiso   1.00
O1345  O     0.04709   0.01679   0.27040   0.00000  Uiso   1.00
O1346  O     0.21596   0.12726   0.27980   0.00000  Uiso   1.00
O1347  O     0.21826   0.12938   0.02467   0.00000  Uiso   1.00
O1348  O     0.19974   0.14417   0.36464   0.00000  Uiso   1.00
O1349  O     0.03162   0.03473   0.35195   0.00000  Uiso   1.00
O1350  O     0.20288   0.13854   0.11140   0.00000  Uiso   1.00
O1351  O     0.04318   0.02206   0.01935   0.00000  Uiso   1.00
O1352  O     0.02971   0.03725   0.10454   0.00000  Uiso   1.00
O1353  O     0.20193   0.18989   0.23898   0.00000  Uiso   1.00
O1354  O     0.20093   0.18275   0.48934   0.00000  Uiso   1.00
O1355  O     0.21624   0.19894   0.15221   0.00000  Uiso   1.00
O1356  O     0.04626   0.02388   0.76826   0.00000  Uiso   1.00
O1357  O     0.20421   0.19241   0.73849   0.00000  Uiso   1.00
O1358  O     0.04526   0.02206   0.51860   0.00000  Uiso   1.00
O1359  O     0.22197   0.12451   0.53061   0.00000  Uiso   1.00
O1360  O     0.22333   0.13102   0.78009   0.00000  Uiso   1.00
O1361  O     0.20761   0.14650   0.86298   0.00000  Uiso   1.00
O1362  O     0.20573   0.19437   0.99026   0.00000  Uiso   1.00
O1363  O     0.20489   0.13928   0.61483   0.00000  Uiso   1.00
O1364  O     0.03320   0.03769   0.60506   0.00000  Uiso   1.00
O1365  O     0.03839   0.03481   0.85777   0.00000  Uiso   1.00
O1366  O     0.04105   0.30674   0.40249   0.00000  Uiso   1.00
O1367  O     0.04421   0.36229   0.27874   0.00000  Uiso   1.00
O1368  O     0.04549   0.35970   0.02882   0.00000  Uiso   1.00
O1369  O     0.02959   0.37761   0.11038   0.00000  Uiso   1.00
O1370  O     0.03687   0.36887   0.36591   0.00000  Uiso   1.00
O1371  O     0.02910   0.29537   0.48968   0.00000  Uiso   1.00
O1372  O     0.22004   0.20463   0.40897   0.00000  Uiso   1.00
O1373  O     0.04573   0.31493   0.14974   0.00000  Uiso   1.00
O1374  O     0.03409   0.30010   0.23698   0.00000  Uiso   1.00
O1375  O     0.04814   0.31838   0.90052   0.00000  Uiso   1.00
O1376  O     0.04346   0.36219   0.77298   0.00000  Uiso   1.00
O1377  O     0.04527   0.35688   0.52553   0.00000  Uiso   1.00
O1378  O     0.02956   0.37905   0.85805   0.00000  Uiso   1.00
O1379  O     0.03056   0.30022   0.73707   0.00000  Uiso   1.00
O1380  O     0.04210   0.31276   0.64888   0.00000  Uiso   1.00
O1381  O     0.21738   0.20237   0.65244   0.00000  Uiso   1.00
O1382  O     0.02617   0.37505   0.60721   0.00000  Uiso   1.00
O1383  O     0.02944   0.30112   0.98217   0.00000  Uiso   1.00
O1384  O     0.21839   0.20789   0.90467   0.00000  Uiso   1.00
O1385  O     0.20768   0.52460   0.49644   0.00000  Uiso   1.00
O1386  O     0.20859   0.47581   0.37206   0.00000  Uiso   1.00
O1387  O     0.21977   0.46484   0.03652   0.00000  Uiso   1.00
O1388  O     0.22143   0.53709   0.16236   0.00000  Uiso   1.00
O1389  O     0.22437   0.46190   0.28618   0.00000  Uiso   1.00
O1390  O     0.20734   0.52391   0.24822   0.00000  Uiso   1.00
O1391  O     0.21974   0.53939   0.41050   0.00000  Uiso   1.00
O1392  O     0.20699   0.47575   0.12152   0.00000  Uiso   1.00
O1393  O     0.20408   0.52217   0.74505   0.00000  Uiso   1.00
O1394  O     0.20652   0.47212   0.62165   0.00000  Uiso   1.00
O1395  O     0.20620   0.47928   0.87333   0.00000  Uiso   1.00
O1396  O     0.21706   0.46316   0.53288   0.00000  Uiso   1.00
O1397  O     0.21802   0.53957   0.91264   0.00000  Uiso   1.00
O1398  O     0.22170   0.46163   0.78962   0.00000  Uiso   1.00
O1399  O     0.22207   0.53595   0.66130   0.00000  Uiso   1.00
O1400  O     0.20557   0.52702   0.99941   0.00000  Uiso   1.00
O1401  O     0.04645   0.68800   0.27144   0.00000  Uiso   1.00
O1402  O     0.04902   0.64064   0.39973   0.00000  Uiso   1.00
O1403  O     0.03262   0.70277   0.35716   0.00000  Uiso   1.00
O1404  O     0.03322   0.62642   0.48540   0.00000  Uiso   1.00
O1405  O     0.04611   0.64474   0.15075   0.00000  Uiso   1.00
O1406  O     0.02725   0.62750   0.23273   0.00000  Uiso   1.00
O1407  O     0.03052   0.70456   0.10862   0.00000  Uiso   1.00
O1408  O     0.04598   0.68849   0.02442   0.00000  Uiso   1.00
O1409  O     0.21701   0.79909   0.28391   0.00000  Uiso   1.00
O1410  O     0.21998   0.79862   0.02964   0.00000  Uiso   1.00
O1411  O     0.04407   0.69564   0.77466   0.00000  Uiso   1.00
O1412  O     0.03297   0.70335   0.86272   0.00000  Uiso   1.00
O1413  O     0.04858   0.68841   0.52516   0.00000  Uiso   1.00
O1414  O     0.04331   0.63920   0.90284   0.00000  Uiso   1.00
O1415  O     0.02930   0.62608   0.98757   0.00000  Uiso   1.00
O1416  O     0.04646   0.64237   0.64939   0.00000  Uiso   1.00
O1417  O     0.03467   0.63105   0.73351   0.00000  Uiso   1.00
O1418  O     0.03197   0.70508   0.60846   0.00000  Uiso   1.00
O1419  O     0.22215   0.79391   0.77865   0.00000  Uiso   1.00
O1420  O     0.21847   0.79389   0.53009   0.00000  Uiso   1.00
O1421  O     0.03191   0.96148   0.48027   0.00000  Uiso   1.00
O1422  O     0.20590   0.85746   0.48895   0.00000  Uiso   1.00
O1423  O     0.04089   0.97368   0.14608   0.00000  Uiso   1.00
O1424  O     0.21723   0.87323   0.15488   0.00000  Uiso   1.00
O1425  O     0.02489   0.95715   0.22832   0.00000  Uiso   1.00
O1426  O     0.20482   0.85834   0.24121   0.00000  Uiso   1.00
O1427  O     0.04455   0.97437   0.39366   0.00000  Uiso   1.00
O1428  O     0.22298   0.87328   0.40764   0.00000  Uiso   1.00
O1429  O     0.20121   0.81490   0.36654   0.00000  Uiso   1.00
O1430  O     0.20264   0.81248   0.11367   0.00000  Uiso   1.00
O1431  O     0.02932   0.96077   0.98015   0.00000  Uiso   1.00
O1432  O     0.21492   0.86880   0.90330   0.00000  Uiso   1.00
O1433  O     0.20697   0.80808   0.86410   0.00000  Uiso   1.00
O1434  O     0.04160   0.97448   0.64288   0.00000  Uiso   1.00
O1435  O     0.22017   0.86982   0.65571   0.00000  Uiso   1.00
O1436  O     0.03195   0.96284   0.73145   0.00000  Uiso   1.00
O1437  O     0.20657   0.85657   0.74000   0.00000  Uiso   1.00
O1438  O     0.20366   0.85819   0.99145   0.00000  Uiso   1.00
O1439  O     0.04179   0.97421   0.89548   0.00000  Uiso   1.00
O1440  O     0.20547   0.80964   0.61640   0.00000  Uiso   1.00
O1441  O     0.45605   0.02265   0.36738   0.00000  Uiso   1.00
O1442  O     0.47206   0.03866   0.28108   0.00000  Uiso   1.00
O1443  O     0.27406   0.12637   0.35698   0.00000  Uiso   1.00
O1444  O     0.28244   0.12537   0.10690   0.00000  Uiso   1.00
O1445  O     0.45669   0.02462   0.11147   0.00000  Uiso   1.00
O1446  O     0.29272   0.14380   0.27483   0.00000  Uiso   1.00
O1447  O     0.47130   0.03719   0.02672   0.00000  Uiso   1.00
O1448  O     0.29298   0.14222   0.02139   0.00000  Uiso   1.00
O1449  O     0.29424   0.18566   0.39780   0.00000  Uiso   1.00
O1450  O     0.29075   0.18838   0.14815   0.00000  Uiso   1.00
O1451  O     0.45999   0.02694   0.86336   0.00000  Uiso   1.00
O1452  O     0.29365   0.18778   0.64568   0.00000  Uiso   1.00
O1453  O     0.29578   0.19512   0.89875   0.00000  Uiso   1.00
O1454  O     0.28499   0.13254   0.85842   0.00000  Uiso   1.00
O1455  O     0.28257   0.12661   0.60257   0.00000  Uiso   1.00
O1456  O     0.29674   0.14569   0.77169   0.00000  Uiso   1.00
O1457  O     0.47192   0.03825   0.77660   0.00000  Uiso   1.00
O1458  O     0.47708   0.04102   0.53490   0.00000  Uiso   1.00
O1459  O     0.29572   0.14513   0.51746   0.00000  Uiso   1.00
O1460  O     0.46040   0.02222   0.61246   0.00000  Uiso   1.00
O1461  O     0.27624   0.20493   0.47705   0.00000  Uiso   1.00
O1462  O     0.45599   0.30438   0.49125   0.00000  Uiso   1.00
O1463  O     0.45662   0.35396   0.36562   0.00000  Uiso   1.00
O1464  O     0.45328   0.30528   0.23919   0.00000  Uiso   1.00
O1465  O     0.47003   0.29429   0.40579   0.00000  Uiso   1.00
O1466  O     0.46662   0.29429   0.15548   0.00000  Uiso   1.00
O1467  O     0.46891   0.36979   0.03136   0.00000  Uiso   1.00
O1468  O     0.45606   0.35637   0.11522   0.00000  Uiso   1.00
O1469  O     0.46651   0.36820   0.28017   0.00000  Uiso   1.00
O1470  O     0.27752   0.20367   0.23198   0.00000  Uiso   1.00
O1471  O     0.46642   0.29431   0.90521   0.00000  Uiso   1.00
O1472  O     0.45672   0.30698   0.99485   0.00000  Uiso   1.00
O1473  O     0.45263   0.35423   0.86746   0.00000  Uiso   1.00
O1474  O     0.45399   0.30537   0.74041   0.00000  Uiso   1.00
O1475  O     0.47395   0.28598   0.65749   0.00000  Uiso   1.00
O1476  O     0.47099   0.36390   0.53143   0.00000  Uiso   1.00
O1477  O     0.45484   0.34643   0.61431   0.00000  Uiso   1.00
O1478  O     0.46715   0.36730   0.78300   0.00000  Uiso   1.00
O1479  O     0.27968   0.20594   0.98400   0.00000  Uiso   1.00
O1480  O     0.27991   0.20675   0.72838   0.00000  Uiso   1.00
O1481  O     0.29815   0.52174   0.15513   0.00000  Uiso   1.00
O1482  O     0.28561   0.46532   0.36526   0.00000  Uiso   1.00
O1483  O     0.28310   0.53687   0.23820   0.00000  Uiso   1.00
O1484  O     0.29769   0.52496   0.40424   0.00000  Uiso   1.00
O1485  O     0.29607   0.47773   0.02882   0.00000  Uiso   1.00
O1486  O     0.29805   0.47696   0.28028   0.00000  Uiso   1.00
O1487  O     0.28291   0.53504   0.49236   0.00000  Uiso   1.00
O1488  O     0.28023   0.46147   0.11325   0.00000  Uiso   1.00
O1489  O     0.28248   0.46291   0.86824   0.00000  Uiso   1.00
O1490  O     0.29469   0.52810   0.90444   0.00000  Uiso   1.00
O1491  O     0.29506   0.47294   0.52731   0.00000  Uiso   1.00
O1492  O     0.29652   0.47920   0.78212   0.00000  Uiso   1.00
O1493  O     0.29515   0.51913   0.65708   0.00000  Uiso   1.00
O1494  O     0.28185   0.53951   0.98987   0.00000  Uiso   1.00
O1495  O     0.28089   0.45825   0.61356   0.00000  Uiso   1.00
O1496  O     0.27886   0.53657   0.74075   0.00000  Uiso   1.00
O1497  O     0.47298   0.62604   0.41024   0.00000  Uiso   1.00
O1498  O     0.46777   0.70524   0.28667   0.00000  Uiso   1.00
O1499  O     0.27346   0.79247   0.35655   0.00000  Uiso   1.00
O1500  O     0.27663   0.79688   0.10685   0.00000  Uiso   1.00
O1501  O     0.45205   0.68647   0.36714   0.00000  Uiso   1.00
O1502  O     0.46647   0.63186   0.15825   0.00000  Uiso   1.00
O1503  O     0.45441   0.69419   0.12099   0.00000  Uiso   1.00
O1504  O     0.46904   0.70893   0.03337   0.00000  Uiso   1.00
O1505  O     0.45724   0.64394   0.24445   0.00000  Uiso   1.00
O1506  O     0.45686   0.64342   0.49388   0.00000  Uiso   1.00
O1507  O     0.47233   0.70623   0.78349   0.00000  Uiso   1.00
O1508  O     0.47062   0.63014   0.90816   0.00000  Uiso   1.00
O1509  O     0.28522   0.79922   0.85926   0.00000  Uiso   1.00
O1510  O     0.45486   0.64680   0.99178   0.00000  Uiso   1.00
O1511  O     0.45769   0.69469   0.86959   0.00000  Uiso   1.00
O1512  O     0.45486   0.64313   0.74498   0.00000  Uiso   1.00
O1513  O     0.46526   0.63130   0.65778   0.00000  Uiso   1.00
O1514  O     0.46899   0.70676   0.53071   0.00000  Uiso   1.00
O1515  O     0.45507   0.69288   0.61894   0.00000  Uiso   1.00
O1516  O     0.27892   0.79479   0.60909   0.00000  Uiso   1.00
O1517  O     0.29593   0.81689   0.02610   0.00000  Uiso   1.00
O1518  O     0.28059   0.87015   0.48222   0.00000  Uiso   1.00
O1519  O     0.29283   0.85737   0.14642   0.00000  Uiso   1.00
O1520  O     0.46850   0.96390   0.15623   0.00000  Uiso   1.00
O1521  O     0.29430   0.85510   0.39856   0.00000  Uiso   1.00
O1522  O     0.47238   0.96265   0.40615   0.00000  Uiso   1.00
O1523  O     0.45803   0.97900   0.49176   0.00000  Uiso   1.00
O1524  O     0.27884   0.87373   0.23238   0.00000  Uiso   1.00
O1525  O     0.29173   0.81180   0.27276   0.00000  Uiso   1.00
O1526  O     0.45505   0.97815   0.24147   0.00000  Uiso   1.00
O1527  O     0.47199   0.96179   0.65500   0.00000  Uiso   1.00
O1528  O     0.29021   0.86188   0.90064   0.00000  Uiso   1.00
O1529  O     0.29761   0.85606   0.64682   0.00000  Uiso   1.00
O1530  O     0.29665   0.81054   0.77215   0.00000  Uiso   1.00
O1531  O     0.27717   0.87659   0.98542   0.00000  Uiso   1.00
O1532  O     0.28156   0.87197   0.73146   0.00000  Uiso   1.00
O1533  O     0.46858   0.96267   0.90073   0.00000  Uiso   1.00
O1534  O     0.45999   0.97832   0.73744   0.00000  Uiso   1.00
O1535  O     0.45797   0.97439   0.98795   0.00000  Uiso   1.00
O1536  O     0.29521   0.80857   0.52198   0.00000  Uiso   1.00
O1537  O     0.70504   0.18741   0.49497   0.00000  Uiso   1.00
O1538  O     0.70916   0.19449   0.24403   0.00000  Uiso   1.00
O1539  O     0.70570   0.14208   0.36454   0.00000  Uiso   1.00
O1540  O     0.72457   0.12701   0.03338   0.00000  Uiso   1.00
O1541  O     0.53074   0.03937   0.35697   0.00000  Uiso   1.00
O1542  O     0.54722   0.02013   0.27390   0.00000  Uiso   1.00
O1543  O     0.70809   0.14554   0.11683   0.00000  Uiso   1.00
O1544  O     0.54827   0.02126   0.02118   0.00000  Uiso   1.00
O1545  O     0.53444   0.03704   0.10729   0.00000  Uiso   1.00
O1546  O     0.71948   0.13017   0.27876   0.00000  Uiso   1.00
O1547  O     0.72361   0.12665   0.53405   0.00000  Uiso   1.00
O1548  O     0.70605   0.18594   0.74029   0.00000  Uiso   1.00
O1549  O     0.55189   0.01875   0.52113   0.00000  Uiso   1.00
O1550  O     0.70968   0.13730   0.86782   0.00000  Uiso   1.00
O1551  O     0.54698   0.02503   0.77265   0.00000  Uiso   1.00
O1552  O     0.53678   0.03701   0.86013   0.00000  Uiso   1.00
O1553  O     0.70835   0.13990   0.61881   0.00000  Uiso   1.00
O1554  O     0.72139   0.12664   0.78195   0.00000  Uiso   1.00
O1555  O     0.53656   0.03551   0.60479   0.00000  Uiso   1.00
O1556  O     0.70310   0.18752   0.99033   0.00000  Uiso   1.00
O1557  O     0.54548   0.30736   0.40167   0.00000  Uiso   1.00
O1558  O     0.54159   0.35459   0.27262   0.00000  Uiso   1.00
O1559  O     0.54215   0.35636   0.02480   0.00000  Uiso   1.00
O1560  O     0.71758   0.20856   0.15650   0.00000  Uiso   1.00
O1561  O     0.52990   0.36921   0.35711   0.00000  Uiso   1.00
O1562  O     0.52945   0.29236   0.23297   0.00000  Uiso   1.00
O1563  O     0.52937   0.28639   0.48606   0.00000  Uiso   1.00
O1564  O     0.54266   0.30688   0.15088   0.00000  Uiso   1.00
O1565  O     0.52995   0.36961   0.11038   0.00000  Uiso   1.00
O1566  O     0.71861   0.20190   0.40948   0.00000  Uiso   1.00
O1567  O     0.54428   0.30957   0.90143   0.00000  Uiso   1.00
O1568  O     0.54301   0.35507   0.77445   0.00000  Uiso   1.00
O1569  O     0.54768   0.34825   0.52603   0.00000  Uiso   1.00
O1570  O     0.71950   0.20169   0.65484   0.00000  Uiso   1.00
O1571  O     0.52777   0.37043   0.86184   0.00000  Uiso   1.00
O1572  O     0.71922   0.20137   0.90607   0.00000  Uiso   1.00
O1573  O     0.53136   0.29228   0.73536   0.00000  Uiso   1.00
O1574  O     0.52936   0.29316   0.98542   0.00000  Uiso   1.00
O1575  O     0.52745   0.36601   0.60711   0.00000  Uiso   1.00
O1576  O     0.54741   0.30637   0.64984   0.00000  Uiso   1.00
O1577  O     0.70272   0.52393   0.24183   0.00000  Uiso   1.00
O1578  O     0.71732   0.45999   0.03002   0.00000  Uiso   1.00
O1579  O     0.71765   0.54013   0.15655   0.00000  Uiso   1.00
O1580  O     0.70263   0.47869   0.11509   0.00000  Uiso   1.00
O1581  O     0.70169   0.52047   0.48710   0.00000  Uiso   1.00
O1582  O     0.71840   0.45967   0.27834   0.00000  Uiso   1.00
O1583  O     0.70435   0.47376   0.36375   0.00000  Uiso   1.00
O1584  O     0.71895   0.53489   0.40569   0.00000  Uiso   1.00
O1585  O     0.70407   0.47771   0.86291   0.00000  Uiso   1.00
O1586  O     0.70156   0.52163   0.98739   0.00000  Uiso   1.00
O1587  O     0.70561   0.52336   0.73863   0.00000  Uiso   1.00
O1588  O     0.71993   0.45953   0.53137   0.00000  Uiso   1.00
O1589  O     0.70260   0.47986   0.61223   0.00000  Uiso   1.00
O1590  O     0.71803   0.46163   0.77890   0.00000  Uiso   1.00
O1591  O     0.72032   0.53789   0.65293   0.00000  Uiso   1.00
O1592  O     0.71656   0.53794   0.90338   0.00000  Uiso   1.00
O1593  O     0.54601   0.69033   0.27627   0.00000  Uiso   1.00
O1594  O     0.71725   0.79465   0.02955   0.00000  Uiso   1.00
O1595  O     0.52513   0.70638   0.35729   0.00000  Uiso   1.00
O1596  O     0.53286   0.63135   0.48773   0.00000  Uiso   1.00
O1597  O     0.71933   0.79126   0.28431   0.00000  Uiso   1.00
O1598  O     0.54849   0.64709   0.40261   0.00000  Uiso   1.00
O1599  O     0.54013   0.64086   0.14922   0.00000  Uiso   1.00
O1600  O     0.53240   0.63030   0.23683   0.00000  Uiso   1.00
O1601  O     0.53112   0.70502   0.11323   0.00000  Uiso   1.00
O1602  O     0.54478   0.69100   0.02943   0.00000  Uiso   1.00
O1603  O     0.54435   0.68958   0.77494   0.00000  Uiso   1.00
O1604  O     0.54485   0.64069   0.89989   0.00000  Uiso   1.00
O1605  O     0.53332   0.70411   0.86171   0.00000  Uiso   1.00
O1606  O     0.72104   0.79520   0.53799   0.00000  Uiso   1.00
O1607  O     0.54525   0.69527   0.52372   0.00000  Uiso   1.00
O1608  O     0.53172   0.63268   0.98940   0.00000  Uiso   1.00
O1609  O     0.54075   0.64125   0.64925   0.00000  Uiso   1.00
O1610  O     0.53013   0.62922   0.73644   0.00000  Uiso   1.00
O1611  O     0.53202   0.70497   0.61231   0.00000  Uiso   1.00
O1612  O     0.71841   0.79453   0.78453   0.00000  Uiso   1.00
O1613  O     0.70828   0.80299   0.37214   0.00000  Uiso   1.00
O1614  O     0.70671   0.80543   0.11715   0.00000  Uiso   1.00
O1615  O     0.54509   0.97652   0.15012   0.00000  Uiso   1.00
O1616  O     0.71912   0.86760   0.15834   0.00000  Uiso   1.00
O1617  O     0.52646   0.96055   0.23465   0.00000  Uiso   1.00
O1618  O     0.70212   0.85134   0.24325   0.00000  Uiso   1.00
O1619  O     0.53344   0.96053   0.48086   0.00000  Uiso   1.00
O1620  O     0.54870   0.97605   0.39410   0.00000  Uiso   1.00
O1621  O     0.71442   0.86588   0.40489   0.00000  Uiso   1.00
O1622  O     0.70448   0.85653   0.49735   0.00000  Uiso   1.00
O1623  O     0.70221   0.81052   0.86910   0.00000  Uiso   1.00
O1624  O     0.70599   0.81303   0.61963   0.00000  Uiso   1.00
O1625  O     0.70967   0.85832   0.99551   0.00000  Uiso   1.00
O1626  O     0.54805   0.97688   0.64615   0.00000  Uiso   1.00
O1627  O     0.72090   0.87214   0.65909   0.00000  Uiso   1.00
O1628  O     0.53545   0.96313   0.73258   0.00000  Uiso   1.00
O1629  O     0.70708   0.85595   0.74645   0.00000  Uiso   1.00
O1630  O     0.53199   0.95942   0.98080   0.00000  Uiso   1.00
O1631  O     0.54526   0.97217   0.89481   0.00000  Uiso   1.00
O1632  O     0.72225   0.86893   0.91027   0.00000  Uiso   1.00
O1633  O     0.95514   0.02254   0.35821   0.00000  Uiso   1.00
O1634  O     0.78108   0.12756   0.36077   0.00000  Uiso   1.00
O1635  O     0.79463   0.18676   0.40403   0.00000  Uiso   1.00
O1636  O     0.97500   0.03987   0.27674   0.00000  Uiso   1.00
O1637  O     0.79655   0.14353   0.27476   0.00000  Uiso   1.00
O1638  O     0.96768   0.03577   0.02459   0.00000  Uiso   1.00
O1639  O     0.79903   0.14955   0.02816   0.00000  Uiso   1.00
O1640  O     0.95348   0.02534   0.11141   0.00000  Uiso   1.00
O1641  O     0.78247   0.13208   0.11273   0.00000  Uiso   1.00
O1642  O     0.79411   0.19789   0.15018   0.00000  Uiso   1.00
O1643  O     0.96028   0.03315   0.86073   0.00000  Uiso   1.00
O1644  O     0.79447   0.19366   0.64817   0.00000  Uiso   1.00
O1645  O     0.78533   0.12912   0.85989   0.00000  Uiso   1.00
O1646  O     0.78516   0.13129   0.61136   0.00000  Uiso   1.00
O1647  O     0.79660   0.14405   0.77407   0.00000  Uiso   1.00
O1648  O     0.97282   0.04083   0.77305   0.00000  Uiso   1.00
O1649  O     0.96968   0.04067   0.52614   0.00000  Uiso   1.00
O1650  O     0.79628   0.14214   0.52391   0.00000  Uiso   1.00
O1651  O     0.95491   0.02500   0.61300   0.00000  Uiso   1.00
O1652  O     0.79462   0.19166   0.89782   0.00000  Uiso   1.00
O1653  O     0.78445   0.20733   0.23942   0.00000  Uiso   1.00
O1654  O     0.96517   0.29961   0.40415   0.00000  Uiso   1.00
O1655  O     0.95360   0.31264   0.49090   0.00000  Uiso   1.00
O1656  O     0.96721   0.37361   0.27942   0.00000  Uiso   1.00
O1657  O     0.95492   0.36183   0.11702   0.00000  Uiso   1.00
O1658  O     0.97042   0.37782   0.03251   0.00000  Uiso   1.00
O1659  O     0.95999   0.36586   0.36837   0.00000  Uiso   1.00
O1660  O     0.95723   0.31288   0.24240   0.00000  Uiso   1.00
O1661  O     0.96898   0.29937   0.15618   0.00000  Uiso   1.00
O1662  O     0.77875   0.20474   0.48709   0.00000  Uiso   1.00
O1663  O     0.77790   0.20799   0.98320   0.00000  Uiso   1.00
O1664  O     0.78210   0.20343   0.73514   0.00000  Uiso   1.00
O1665  O     0.95722   0.36167   0.86889   0.00000  Uiso   1.00
O1666  O     0.95496   0.31301   0.74427   0.00000  Uiso   1.00
O1667  O     0.97115   0.30017   0.90575   0.00000  Uiso   1.00
O1668  O     0.96705   0.29898   0.65842   0.00000  Uiso   1.00
O1669  O     0.97055   0.37487   0.53219   0.00000  Uiso   1.00
O1670  O     0.95304   0.35780   0.61673   0.00000  Uiso   1.00
O1671  O     0.96699   0.37375   0.78210   0.00000  Uiso   1.00
O1672  O     0.95266   0.31836   0.98929   0.00000  Uiso   1.00
O1673  O     0.77917   0.53617   0.23464   0.00000  Uiso   1.00
O1674  O     0.77734   0.45757   0.35647   0.00000  Uiso   1.00
O1675  O     0.79378   0.51941   0.39735   0.00000  Uiso   1.00
O1676  O     0.77832   0.53643   0.48134   0.00000  Uiso   1.00
O1677  O     0.79034   0.47324   0.26977   0.00000  Uiso   1.00
O1678  O     0.79171   0.52599   0.14812   0.00000  Uiso   1.00
O1679  O     0.79064   0.47616   0.02184   0.00000  Uiso   1.00
O1680  O     0.77590   0.46310   0.10617   0.00000  Uiso   1.00
O1681  O     0.79518   0.47764   0.51947   0.00000  Uiso   1.00
O1682  O     0.77961   0.46206   0.86044   0.00000  Uiso   1.00
O1683  O     0.79389   0.52469   0.89946   0.00000  Uiso   1.00
O1684  O     0.79352   0.47446   0.77304   0.00000  Uiso   1.00
O1685  O     0.77727   0.53698   0.98430   0.00000  Uiso   1.00
O1686  O     0.78121   0.53757   0.73066   0.00000  Uiso   1.00
O1687  O     0.79749   0.52282   0.64607   0.00000  Uiso   1.00
O1688  O     0.78011   0.46138   0.60479   0.00000  Uiso   1.00
O1689  O     0.97223   0.62635   0.40769   0.00000  Uiso   1.00
O1690  O     0.97425   0.70604   0.28465   0.00000  Uiso   1.00
O1691  O     0.95469   0.64144   0.49137   0.00000  Uiso   1.00
O1692  O     0.95683   0.68807   0.36597   0.00000  Uiso   1.00
O1693  O     0.96999   0.70425   0.03187   0.00000  Uiso   1.00
O1694  O     0.95365   0.68667   0.11510   0.00000  Uiso   1.00
O1695  O     0.95455   0.64591   0.24307   0.00000  Uiso   1.00
O1696  O     0.97050   0.63044   0.15848   0.00000  Uiso   1.00
O1697  O     0.78229   0.79029   0.11367   0.00000  Uiso   1.00
O1698  O     0.78527   0.79720   0.36665   0.00000  Uiso   1.00
O1699  O     0.77843   0.78948   0.86116   0.00000  Uiso   1.00
O1700  O     0.96790   0.70446   0.77898   0.00000  Uiso   1.00
O1701  O     0.95771   0.69103   0.61461   0.00000  Uiso   1.00
O1702  O     0.78274   0.79797   0.61341   0.00000  Uiso   1.00
O1703  O     0.96527   0.63282   0.90725   0.00000  Uiso   1.00
O1704  O     0.95870   0.69518   0.86945   0.00000  Uiso   1.00
O1705  O     0.95750   0.64092   0.74362   0.00000  Uiso   1.00
O1706  O     0.96910   0.62963   0.65550   0.00000  Uiso   1.00
O1707  O     0.97027   0.70336   0.52767   0.00000  Uiso   1.00
O1708  O     0.95350   0.64282   0.99550   0.00000  Uiso   1.00
O1709  O     0.77944   0.87145   0.48789   0.00000  Uiso   1.00
O1710  O     0.79405   0.80528   0.27818   0.00000  Uiso   1.00
O1711  O     0.96547   0.96202   0.15283   0.00000  Uiso   1.00
O1712  O     0.96856   0.96105   0.40201   0.00000  Uiso   1.00
O1713  O     0.77857   0.86694   0.23647   0.00000  Uiso   1.00
O1714  O     0.95402   0.97848   0.48644   0.00000  Uiso   1.00
O1715  O     0.95192   0.97763   0.23778   0.00000  Uiso   1.00
O1716  O     0.79194   0.86069   0.40031   0.00000  Uiso   1.00
O1717  O     0.79511   0.85209   0.15349   0.00000  Uiso   1.00
O1718  O     0.79309   0.80210   0.02542   0.00000  Uiso   1.00
O1719  O     0.78536   0.86554   0.98702   0.00000  Uiso   1.00
O1720  O     0.79566   0.81260   0.52975   0.00000  Uiso   1.00
O1721  O     0.96746   0.96484   0.65011   0.00000  Uiso   1.00
O1722  O     0.79460   0.80457   0.77841   0.00000  Uiso   1.00
O1723  O     0.79618   0.85209   0.90211   0.00000  Uiso   1.00
O1724  O     0.95488   0.97423   0.98591   0.00000  Uiso   1.00
O1725  O     0.96451   0.96727   0.89732   0.00000  Uiso   1.00
O1726  O     0.79684   0.85848   0.65433   0.00000  Uiso   1.00
O1727  O     0.78215   0.86879   0.74068   0.00000  Uiso   1.00
O1728  O     0.95663   0.98000   0.73758   0.00000  Uiso   1.00
O1729  O     0.24776   0.19110   0.32037   0.00000  Uiso   1.00
O1730  O     0.24491   0.14125   0.19423   0.00000  Uiso   1.00
O1731  O     0.24739   0.14047   0.44282   0.00000  Uiso   1.00
O1732  O     0.00375   0.02436   0.68916   0.00000  Uiso   1.00
O1733  O     0.24699   0.18742   0.56601   0.00000  Uiso   1.00
O1734  O     0.00060   0.02427   0.94109   0.00000  Uiso   1.00
O1735  O     0.24766   0.14680   0.94044   0.00000  Uiso   1.00
O1736  O     0.24844   0.14144   0.69318   0.00000  Uiso   1.00
O1737  O     0.00140   0.36030   0.19861   0.00000  Uiso   1.00
O1738  O     0.00112   0.35776   0.44708   0.00000  Uiso   1.00
O1739  O     0.00118   0.31513   0.82317   0.00000  Uiso   1.00
O1740  O     0.24954   0.47922   0.95121   0.00000  Uiso   1.00
O1741  O     0.24971   0.52603   0.82524   0.00000  Uiso   1.00
O1742  O     0.00330   0.64212   0.32130   0.00000  Uiso   1.00
O1743  O     0.00373   0.68883   0.44440   0.00000  Uiso   1.00
O1744  O     0.00225   0.64122   0.07330   0.00000  Uiso   1.00
O1745  O     0.00136   0.68969   0.94797   0.00000  Uiso   1.00
O1746  O     0.00011   0.64534   0.82004   0.00000  Uiso   1.00
O1747  O     0.24721   0.85925   0.32069   0.00000  Uiso   1.00
O1748  O     0.24799   0.85882   0.06886   0.00000  Uiso   1.00
O1749  O     0.24714   0.81125   0.19519   0.00000  Uiso   1.00
O1750  O     0.00091   0.97432   0.31419   0.00000  Uiso   1.00
O1751  O     0.24829   0.80974   0.44339   0.00000  Uiso   1.00
O1752  O     0.00002   0.98127   0.81720   0.00000  Uiso   1.00
O1753  O     0.24993   0.85593   0.57024   0.00000  Uiso   1.00
O1754  O     0.25023   0.18747   0.06858   0.00000  Uiso   1.00
O1755  O     0.25300   0.19330   0.81707   0.00000  Uiso   1.00
O1756  O     0.49689   0.35621   0.19571   0.00000  Uiso   1.00
O1757  O     0.49935   0.30543   0.31823   0.00000  Uiso   1.00
O1758  O     0.49924   0.30741   0.07184   0.00000  Uiso   1.00
O1759  O     0.49965   0.35163   0.69585   0.00000  Uiso   1.00
O1760  O     0.49701   0.35430   0.94659   0.00000  Uiso   1.00
O1761  O     0.49856   0.30754   0.82103   0.00000  Uiso   1.00
O1762  O     0.25176   0.47659   0.45043   0.00000  Uiso   1.00
O1763  O     0.25322   0.52520   0.07718   0.00000  Uiso   1.00
O1764  O     0.25173   0.52293   0.32579   0.00000  Uiso   1.00
O1765  O     0.25098   0.47629   0.19954   0.00000  Uiso   1.00
O1766  O     0.25055   0.47389   0.70186   0.00000  Uiso   1.00
O1767  O     0.25232   0.52254   0.57596   0.00000  Uiso   1.00
O1768  O     0.49423   0.64521   0.07243   0.00000  Uiso   1.00
O1769  O     0.49799   0.69054   0.44494   0.00000  Uiso   1.00
O1770  O     0.49777   0.68986   0.69758   0.00000  Uiso   1.00
O1771  O     0.25047   0.85754   0.81829   0.00000  Uiso   1.00
O1772  O     0.25107   0.81018   0.69421   0.00000  Uiso   1.00
O1773  O     0.25028   0.81274   0.94432   0.00000  Uiso   1.00
O1774  O     0.50599   0.02462   0.44455   0.00000  Uiso   1.00
O1775  O     0.50214   0.02369   0.19393   0.00000  Uiso   1.00
O1776  O     0.50424   0.02122   0.94261   0.00000  Uiso   1.00
O1777  O     0.50312   0.02447   0.69209   0.00000  Uiso   1.00
O1778  O     0.74901   0.19025   0.56997   0.00000  Uiso   1.00
O1779  O     0.74874   0.18807   0.81945   0.00000  Uiso   1.00
O1780  O     0.50152   0.35075   0.44461   0.00000  Uiso   1.00
O1781  O     0.50292   0.30244   0.57126   0.00000  Uiso   1.00
O1782  O     0.74864   0.47201   0.44331   0.00000  Uiso   1.00
O1783  O     0.74681   0.52409   0.07019   0.00000  Uiso   1.00
O1784  O     0.74450   0.47647   0.19237   0.00000  Uiso   1.00
O1785  O     0.74898   0.52101   0.31868   0.00000  Uiso   1.00
O1786  O     0.74733   0.47703   0.94384   0.00000  Uiso   1.00
O1787  O     0.74919   0.52324   0.56669   0.00000  Uiso   1.00
O1788  O     0.50182   0.69171   0.19792   0.00000  Uiso   1.00
O1789  O     0.50210   0.64287   0.32190   0.00000  Uiso   1.00
O1790  O     0.50036   0.64418   0.82284   0.00000  Uiso   1.00
O1791  O     0.50164   0.64586   0.57258   0.00000  Uiso   1.00
O1792  O     0.50573   0.69271   0.94634   0.00000  Uiso   1.00
O1793  O     0.50119   0.97718   0.31848   0.00000  Uiso   1.00
O1794  O     0.50159   0.97540   0.06894   0.00000  Uiso   1.00
O1795  O     0.74640   0.85475   0.32216   0.00000  Uiso   1.00
O1796  O     0.50468   0.97414   0.56893   0.00000  Uiso   1.00
O1797  O     0.50388   0.97833   0.81719   0.00000  Uiso   1.00
O1798  O     0.74966   0.80566   0.94689   0.00000  Uiso   1.00
O1799  O     0.99785   0.02256   0.43831   0.00000  Uiso   1.00
O1800  O     0.75212   0.14791   0.19560   0.00000  Uiso   1.00
O1801  O     0.75051   0.18885   0.32352   0.00000  Uiso   1.00
O1802  O     0.99829   0.02237   0.19083   0.00000  Uiso   1.00
O1803  O     0.75029   0.19244   0.07005   0.00000  Uiso   1.00
O1804  O     0.75064   0.14119   0.44806   0.00000  Uiso   1.00
O1805  O     0.75588   0.14343   0.69609   0.00000  Uiso   1.00
O1806  O     0.75302   0.14232   0.94547   0.00000  Uiso   1.00
O1807  O     0.99796   0.31264   0.32350   0.00000  Uiso   1.00
O1808  O     0.99852   0.31470   0.07024   0.00000  Uiso   1.00
O1809  O     0.99898   0.36301   0.94704   0.00000  Uiso   1.00
O1810  O     0.99716   0.36052   0.69622   0.00000  Uiso   1.00
O1811  O     0.99762   0.31094   0.57320   0.00000  Uiso   1.00
O1812  O     0.75102   0.52450   0.81664   0.00000  Uiso   1.00
O1813  O     0.75063   0.47526   0.69189   0.00000  Uiso   1.00
O1814  O     0.99989   0.69273   0.19675   0.00000  Uiso   1.00
O1815  O     0.99835   0.64228   0.56991   0.00000  Uiso   1.00
O1816  O     0.99864   0.69134   0.69434   0.00000  Uiso   1.00
O1817  O     0.99560   0.97353   0.06646   0.00000  Uiso   1.00
O1818  O     0.75225   0.81034   0.45049   0.00000  Uiso   1.00
O1819  O     0.75290   0.85215   0.07196   0.00000  Uiso   1.00
O1820  O     0.75151   0.80520   0.19706   0.00000  Uiso   1.00
O1821  O     0.75039   0.85901   0.57572   0.00000  Uiso   1.00
O1822  O     0.75128   0.85412   0.82537   0.00000  Uiso   1.00
O1823  O     0.75247   0.81016   0.69929   0.00000  Uiso   1.00
O1824  O     0.99616   0.97668   0.56608   0.00000  Uiso   1.00
