data_final_Cl-Fe-SABVOH01
_audit_creation_date              2022-12-15
_audit_creation_method            'Materials Studio'
_symmetry_space_group_name_H-M    'P1'
_symmetry_Int_Tables_number       1
_symmetry_cell_setting            triclinic
loop_
_symmetry_equiv_pos_as_xyz
  x,y,z
_cell_length_a                    33.0546
_cell_length_b                    35.7232
_cell_length_c                    25.5767
_cell_angle_alpha                 90.0000
_cell_angle_beta                  90.0000
_cell_angle_gamma                 90.0000
loop_
_atom_site_label
_atom_site_type_symbol
_atom_site_fract_x
_atom_site_fract_y
_atom_site_fract_z
_atom_site_U_iso_or_equiv
_atom_site_adp_type
_atom_site_occupancy
Fe1    Fe    0.24739   0.16635   0.23454   0.00000  Uiso   1.00
Fe2    Fe    0.24883   0.16698   0.35758   0.00000  Uiso   1.00
Fe3    Fe    0.24893   0.16640   0.10908   0.00000  Uiso   1.00
Fe4    Fe    0.24843   0.16620   0.48368   0.00000  Uiso   1.00
Fe5    Fe    0.00353   0.00071   0.60770   0.00000  Uiso   1.00
Fe6    Fe    0.00120   0.00246   0.85749   0.00000  Uiso   1.00
Fe7    Fe    0.00097   0.00282   0.98312   0.00000  Uiso   1.00
Fe8    Fe    0.00339   0.00321   0.73334   0.00000  Uiso   1.00
Fe9    Fe    0.24944   0.16505   0.98520   0.00000  Uiso   1.00
Fe10   Fe    0.24953   0.16525   0.60891   0.00000  Uiso   1.00
Fe11   Fe    0.00057   0.33363   0.60888   0.00000  Uiso   1.00
Fe12   Fe    0.24805   0.50125   0.23580   0.00000  Uiso   1.00
Fe13   Fe    0.24786   0.50300   0.36071   0.00000  Uiso   1.00
Fe14   Fe    0.24949   0.50129   0.73585   0.00000  Uiso   1.00
Fe15   Fe    0.24979   0.50046   0.61106   0.00000  Uiso   1.00
Fe16   Fe    0.00144   0.66511   0.36003   0.00000  Uiso   1.00
Fe17   Fe    0.00018   0.66475   0.23523   0.00000  Uiso   1.00
Fe18   Fe    0.00040   0.66185   0.85994   0.00000  Uiso   1.00
Fe19   Fe    0.24769   0.83231   0.23345   0.00000  Uiso   1.00
Fe20   Fe    0.24804   0.83418   0.10772   0.00000  Uiso   1.00
Fe21   Fe    0.00006   0.99802   0.48435   0.00000  Uiso   1.00
Fe22   Fe    0.24892   0.83183   0.73114   0.00000  Uiso   1.00
Fe23   Fe    0.24858   0.83498   0.60548   0.00000  Uiso   1.00
Fe24   Fe    0.24773   0.83190   0.98259   0.00000  Uiso   1.00
Fe25   Fe    0.49967   0.00014   0.23029   0.00000  Uiso   1.00
Fe26   Fe    0.25043   0.16822   0.86151   0.00000  Uiso   1.00
Fe27   Fe    0.25082   0.16552   0.73460   0.00000  Uiso   1.00
Fe28   Fe    0.49700   0.33218   0.48367   0.00000  Uiso   1.00
Fe29   Fe    0.49930   0.33300   0.23298   0.00000  Uiso   1.00
Fe30   Fe    0.49744   0.33259   0.35976   0.00000  Uiso   1.00
Fe31   Fe    0.49859   0.33337   0.73278   0.00000  Uiso   1.00
Fe32   Fe    0.49810   0.33216   0.60914   0.00000  Uiso   1.00
Fe33   Fe    0.49894   0.33053   0.85672   0.00000  Uiso   1.00
Fe34   Fe    0.49974   0.33146   0.98308   0.00000  Uiso   1.00
Fe35   Fe    0.25054   0.50239   0.11153   0.00000  Uiso   1.00
Fe36   Fe    0.25019   0.50237   0.48571   0.00000  Uiso   1.00
Fe37   Fe    0.25277   0.50096   0.98650   0.00000  Uiso   1.00
Fe38   Fe    0.25076   0.50314   0.86130   0.00000  Uiso   1.00
Fe39   Fe    0.49952   0.66556   0.10961   0.00000  Uiso   1.00
Fe40   Fe    0.49847   0.67060   0.23262   0.00000  Uiso   1.00
Fe41   Fe    0.25048   0.83286   0.48070   0.00000  Uiso   1.00
Fe42   Fe    0.25036   0.83296   0.35668   0.00000  Uiso   1.00
Fe43   Fe    0.25001   0.83083   0.85644   0.00000  Uiso   1.00
Fe44   Fe    0.50032   0.00074   0.47921   0.00000  Uiso   1.00
Fe45   Fe    0.74973   0.16561   0.23055   0.00000  Uiso   1.00
Fe46   Fe    0.74984   0.16446   0.73222   0.00000  Uiso   1.00
Fe47   Fe    0.50061   0.00004   0.72917   0.00000  Uiso   1.00
Fe48   Fe    0.50098   0.33080   0.10885   0.00000  Uiso   1.00
Fe49   Fe    0.74892   0.49726   0.48466   0.00000  Uiso   1.00
Fe50   Fe    0.74922   0.49923   0.35985   0.00000  Uiso   1.00
Fe51   Fe    0.74991   0.50236   0.10876   0.00000  Uiso   1.00
Fe52   Fe    0.74816   0.49992   0.61115   0.00000  Uiso   1.00
Fe53   Fe    0.74688   0.49959   0.73576   0.00000  Uiso   1.00
Fe54   Fe    0.74774   0.50178   0.86028   0.00000  Uiso   1.00
Fe55   Fe    0.74934   0.50285   0.98604   0.00000  Uiso   1.00
Fe56   Fe    0.50261   0.66845   0.48130   0.00000  Uiso   1.00
Fe57   Fe    0.50049   0.66890   0.35619   0.00000  Uiso   1.00
Fe58   Fe    0.50231   0.66895   0.73192   0.00000  Uiso   1.00
Fe59   Fe    0.50093   0.66814   0.85777   0.00000  Uiso   1.00
Fe60   Fe    0.50404   0.66575   0.60756   0.00000  Uiso   1.00
Fe61   Fe    0.50026   0.66792   0.98353   0.00000  Uiso   1.00
Fe62   Fe    0.50147   0.99689   0.10385   0.00000  Uiso   1.00
Fe63   Fe    0.50045   0.99858   0.35421   0.00000  Uiso   1.00
Fe64   Fe    0.50084   0.99988   0.85443   0.00000  Uiso   1.00
Fe65   Fe    0.50063   0.99918   0.98036   0.00000  Uiso   1.00
Fe66   Fe    0.50109   0.99882   0.60464   0.00000  Uiso   1.00
Fe67   Fe    0.75330   0.16542   0.48264   0.00000  Uiso   1.00
Fe68   Fe    0.75110   0.16555   0.35773   0.00000  Uiso   1.00
Fe69   Fe    0.99945   0.00129   0.10907   0.00000  Uiso   1.00
Fe70   Fe    0.75035   0.16791   0.10559   0.00000  Uiso   1.00
Fe71   Fe    0.75007   0.16735   0.98099   0.00000  Uiso   1.00
Fe72   Fe    0.75246   0.16682   0.60690   0.00000  Uiso   1.00
Fe73   Fe    0.75076   0.16544   0.85576   0.00000  Uiso   1.00
Fe74   Fe    0.99930   0.33349   0.35927   0.00000  Uiso   1.00
Fe75   Fe    0.99974   0.33513   0.23414   0.00000  Uiso   1.00
Fe76   Fe    0.99929   0.33431   0.48425   0.00000  Uiso   1.00
Fe77   Fe    0.99882   0.33512   0.10939   0.00000  Uiso   1.00
Fe78   Fe    0.99864   0.33622   0.98533   0.00000  Uiso   1.00
Fe79   Fe    0.99806   0.33496   0.85855   0.00000  Uiso   1.00
Fe80   Fe    0.99870   0.33565   0.73345   0.00000  Uiso   1.00
Fe81   Fe    0.75038   0.49992   0.23410   0.00000  Uiso   1.00
Fe82   Fe    0.99927   0.66694   0.48455   0.00000  Uiso   1.00
Fe83   Fe    0.99909   0.66584   0.10876   0.00000  Uiso   1.00
Fe84   Fe    0.99736   0.66115   0.73366   0.00000  Uiso   1.00
Fe85   Fe    0.99664   0.66266   0.60987   0.00000  Uiso   1.00
Fe86   Fe    0.99824   0.66454   0.98478   0.00000  Uiso   1.00
Fe87   Fe    0.99903   0.99979   0.23490   0.00000  Uiso   1.00
Fe88   Fe    0.75168   0.83588   0.35934   0.00000  Uiso   1.00
Fe89   Fe    0.75176   0.83446   0.48362   0.00000  Uiso   1.00
Fe90   Fe    0.75248   0.83536   0.23404   0.00000  Uiso   1.00
Fe91   Fe    0.75090   0.83459   0.10966   0.00000  Uiso   1.00
Fe92   Fe    0.99793   0.99650   0.36031   0.00000  Uiso   1.00
Fe93   Fe    0.75291   0.83438   0.73474   0.00000  Uiso   1.00
Fe94   Fe    0.75282   0.83374   0.60917   0.00000  Uiso   1.00
Fe95   Fe    0.75429   0.83530   0.85943   0.00000  Uiso   1.00
Fe96   Fe    0.75235   0.83419   0.98385   0.00000  Uiso   1.00
Cl97   Cl    0.12052   0.17059   0.32026   0.00000  Uiso   1.00
Cl98   Cl    0.11667   0.17275   0.07190   0.00000  Uiso   1.00
Cl99   Cl    0.12867   0.00747   0.44463   0.00000  Uiso   1.00
Cl100  Cl    0.13761   0.00058   0.20288   0.00000  Uiso   1.00
Cl101  Cl    0.11873   0.17040   0.82738   0.00000  Uiso   1.00
Cl102  Cl    0.11708   0.16418   0.58177   0.00000  Uiso   1.00
Cl103  Cl    0.13182   0.33694   0.20468   0.00000  Uiso   1.00
Cl104  Cl    0.13154   0.33468   0.45983   0.00000  Uiso   1.00
Cl105  Cl    0.13495   0.33337   0.70773   0.00000  Uiso   1.00
Cl106  Cl    0.12867   0.34593   0.94932   0.00000  Uiso   1.00
Cl107  Cl    0.12314   0.50109   0.07533   0.00000  Uiso   1.00
Cl108  Cl    0.11527   0.49906   0.33871   0.00000  Uiso   1.00
Cl109  Cl    0.12141   0.50466   0.57447   0.00000  Uiso   1.00
Cl110  Cl    0.12624   0.50115   0.83545   0.00000  Uiso   1.00
Cl111  Cl    0.12692   0.67665   0.19434   0.00000  Uiso   1.00
Cl112  Cl    0.13233   0.66452   0.45556   0.00000  Uiso   1.00
Cl113  Cl    0.13555   0.66209   0.70751   0.00000  Uiso   1.00
Cl114  Cl    0.13265   0.66509   0.95838   0.00000  Uiso   1.00
Cl115  Cl    0.11172   0.82735   0.08950   0.00000  Uiso   1.00
Cl116  Cl    0.11587   0.83179   0.32253   0.00000  Uiso   1.00
Cl117  Cl    0.11415   0.83887   0.57607   0.00000  Uiso   1.00
Cl118  Cl    0.11851   0.84172   0.81990   0.00000  Uiso   1.00
Cl119  Cl    0.13141   0.99844   0.95265   0.00000  Uiso   1.00
Cl120  Cl    0.13743   0.99211   0.71617   0.00000  Uiso   1.00
Cl121  Cl    0.37961   0.16133   0.19119   0.00000  Uiso   1.00
Cl122  Cl    0.37925   0.16370   0.44090   0.00000  Uiso   1.00
Cl123  Cl    0.38331   0.16692   0.70711   0.00000  Uiso   1.00
Cl124  Cl    0.38248   0.16441   0.96035   0.00000  Uiso   1.00
Cl125  Cl    0.36379   0.00173   0.83319   0.00000  Uiso   1.00
Cl126  Cl    0.37151   0.00131   0.58046   0.00000  Uiso   1.00
Cl127  Cl    0.36997   0.32507   0.07096   0.00000  Uiso   1.00
Cl128  Cl    0.36043   0.33545   0.33506   0.00000  Uiso   1.00
Cl129  Cl    0.36634   0.33150   0.57505   0.00000  Uiso   1.00
Cl130  Cl    0.36633   0.32862   0.82414   0.00000  Uiso   1.00
Cl131  Cl    0.38018   0.49433   0.20527   0.00000  Uiso   1.00
Cl132  Cl    0.38425   0.49684   0.45271   0.00000  Uiso   1.00
Cl133  Cl    0.37839   0.49450   0.70212   0.00000  Uiso   1.00
Cl134  Cl    0.38127   0.49972   0.96022   0.00000  Uiso   1.00
Cl135  Cl    0.36931   0.66204   0.07595   0.00000  Uiso   1.00
Cl136  Cl    0.37211   0.67161   0.33763   0.00000  Uiso   1.00
Cl137  Cl    0.37207   0.66104   0.57902   0.00000  Uiso   1.00
Cl138  Cl    0.37391   0.65559   0.81874   0.00000  Uiso   1.00
Cl139  Cl    0.37543   0.82763   0.19681   0.00000  Uiso   1.00
Cl140  Cl    0.38047   0.83304   0.45379   0.00000  Uiso   1.00
Cl141  Cl    0.37075   0.99103   0.06966   0.00000  Uiso   1.00
Cl142  Cl    0.37052   0.99166   0.31732   0.00000  Uiso   1.00
Cl143  Cl    0.38077   0.82934   0.69887   0.00000  Uiso   1.00
Cl144  Cl    0.38608   0.83496   0.95929   0.00000  Uiso   1.00
Cl145  Cl    0.62148   0.17278   0.32811   0.00000  Uiso   1.00
Cl146  Cl    0.61646   0.16851   0.07711   0.00000  Uiso   1.00
Cl147  Cl    0.63093   0.00635   0.44872   0.00000  Uiso   1.00
Cl148  Cl    0.62453   0.17082   0.81707   0.00000  Uiso   1.00
Cl149  Cl    0.61706   0.16517   0.57580   0.00000  Uiso   1.00
Cl150  Cl    0.63096   0.00345   0.69540   0.00000  Uiso   1.00
Cl151  Cl    0.63682   0.32902   0.20909   0.00000  Uiso   1.00
Cl152  Cl    0.62560   0.34136   0.44357   0.00000  Uiso   1.00
Cl153  Cl    0.62911   0.33380   0.70851   0.00000  Uiso   1.00
Cl154  Cl    0.63316   0.33954   0.94538   0.00000  Uiso   1.00
Cl155  Cl    0.61620   0.50163   0.08855   0.00000  Uiso   1.00
Cl156  Cl    0.62289   0.50813   0.31446   0.00000  Uiso   1.00
Cl157  Cl    0.61344   0.49790   0.57193   0.00000  Uiso   1.00
Cl158  Cl    0.61771   0.49832   0.83479   0.00000  Uiso   1.00
Cl159  Cl    0.63764   0.66078   0.21277   0.00000  Uiso   1.00
Cl160  Cl    0.63147   0.67713   0.44209   0.00000  Uiso   1.00
Cl161  Cl    0.63734   0.66487   0.71044   0.00000  Uiso   1.00
Cl162  Cl    0.63058   0.67183   0.94883   0.00000  Uiso   1.00
Cl163  Cl    0.61964   0.82688   0.08067   0.00000  Uiso   1.00
Cl164  Cl    0.61528   0.83066   0.33170   0.00000  Uiso   1.00
Cl165  Cl    0.62821   0.99871   0.20047   0.00000  Uiso   1.00
Cl166  Cl    0.61664   0.82904   0.58534   0.00000  Uiso   1.00
Cl167  Cl    0.62238   0.83720   0.82623   0.00000  Uiso   1.00
Cl168  Cl    0.63778   0.99915   0.95501   0.00000  Uiso   1.00
Cl169  Cl    0.87914   0.15832   0.19539   0.00000  Uiso   1.00
Cl170  Cl    0.88517   0.17044   0.45599   0.00000  Uiso   1.00
Cl171  Cl    0.86520   0.00131   0.33164   0.00000  Uiso   1.00
Cl172  Cl    0.86359   0.00910   0.83983   0.00000  Uiso   1.00
Cl173  Cl    0.87948   0.16175   0.69728   0.00000  Uiso   1.00
Cl174  Cl    0.89236   0.17424   0.95638   0.00000  Uiso   1.00
Cl175  Cl    0.86482   0.34251   0.09280   0.00000  Uiso   1.00
Cl176  Cl    0.87004   0.32578   0.32257   0.00000  Uiso   1.00
Cl177  Cl    0.86064   0.33361   0.57936   0.00000  Uiso   1.00
Cl178  Cl    0.87312   0.32270   0.82002   0.00000  Uiso   1.00
Cl179  Cl    0.88643   0.50869   0.21701   0.00000  Uiso   1.00
Cl180  Cl    0.88262   0.49882   0.45495   0.00000  Uiso   1.00
Cl181  Cl    0.88487   0.49955   0.70313   0.00000  Uiso   1.00
Cl182  Cl    0.88169   0.50250   0.95488   0.00000  Uiso   1.00
Cl183  Cl    0.86516   0.66817   0.08289   0.00000  Uiso   1.00
Cl184  Cl    0.86770   0.66736   0.33283   0.00000  Uiso   1.00
Cl185  Cl    0.86519   0.66704   0.58897   0.00000  Uiso   1.00
Cl186  Cl    0.86966   0.65925   0.82299   0.00000  Uiso   1.00
Cl187  Cl    0.89200   0.84314   0.21854   0.00000  Uiso   1.00
Cl188  Cl    0.88178   0.82653   0.44959   0.00000  Uiso   1.00
Cl189  Cl    0.86963   0.99482   0.06411   0.00000  Uiso   1.00
Cl190  Cl    0.88783   0.83339   0.70757   0.00000  Uiso   1.00
Cl191  Cl    0.87861   0.81376   0.93891   0.00000  Uiso   1.00
Cl192  Cl    0.86680   0.99945   0.57843   0.00000  Uiso   1.00
H193   H     0.10137   0.06433   0.12068   0.00000  Uiso   1.00
H194   H     0.17234   0.08697   0.12661   0.00000  Uiso   1.00
H195   H     0.19602   0.04966   0.22776   0.00000  Uiso   1.00
H196   H     0.10260   0.05813   0.37404   0.00000  Uiso   1.00
H197   H     0.16173   0.09451   0.37484   0.00000  Uiso   1.00
H198   H     0.19818   0.05006   0.46526   0.00000  Uiso   1.00
H199   H     0.02851   0.03485   0.42022   0.00000  Uiso   1.00
H200   H     0.01722   0.04530   0.17026   0.00000  Uiso   1.00
H201   H     0.11567   0.04606   0.62832   0.00000  Uiso   1.00
H202   H     0.17472   0.08094   0.62579   0.00000  Uiso   1.00
H203   H     0.19902   0.05069   0.72708   0.00000  Uiso   1.00
H204   H     0.11126   0.05470   0.88127   0.00000  Uiso   1.00
H205   H     0.17286   0.08608   0.88409   0.00000  Uiso   1.00
H206   H     0.20144   0.04616   0.97307   0.00000  Uiso   1.00
H207   H     0.02799   0.04302   0.66987   0.00000  Uiso   1.00
H208   H     0.02685   0.04403   0.91786   0.00000  Uiso   1.00
H209   H     0.05606   0.22392   0.34079   0.00000  Uiso   1.00
H210   H     0.08292   0.26514   0.24626   0.00000  Uiso   1.00
H211   H     0.23149   0.21126   0.04546   0.00000  Uiso   1.00
H212   H     0.05186   0.22002   0.09775   0.00000  Uiso   1.00
H213   H     0.19856   0.38447   0.22614   0.00000  Uiso   1.00
H214   H     0.14792   0.23222   0.24864   0.00000  Uiso   1.00
H215   H     0.10504   0.39244   0.12767   0.00000  Uiso   1.00
H216   H     0.24029   0.21398   0.29674   0.00000  Uiso   1.00
H217   H     0.19902   0.38363   0.47768   0.00000  Uiso   1.00
H218   H     0.02690   0.37425   0.17075   0.00000  Uiso   1.00
H219   H     0.00682   0.37922   0.42489   0.00000  Uiso   1.00
H220   H     0.10648   0.38659   0.38131   0.00000  Uiso   1.00
H221   H     0.01004   0.37976   0.91973   0.00000  Uiso   1.00
H222   H     0.23435   0.21086   0.79479   0.00000  Uiso   1.00
H223   H     0.08519   0.25711   0.75519   0.00000  Uiso   1.00
H224   H     0.19809   0.39053   0.97645   0.00000  Uiso   1.00
H225   H     0.05743   0.22089   0.60075   0.00000  Uiso   1.00
H226   H     0.14627   0.23352   0.99848   0.00000  Uiso   1.00
H227   H     0.19335   0.39414   0.72237   0.00000  Uiso   1.00
H228   H     0.13681   0.21167   0.50160   0.00000  Uiso   1.00
H229   H     0.02109   0.37988   0.67325   0.00000  Uiso   1.00
H230   H     0.14728   0.22494   0.75255   0.00000  Uiso   1.00
H231   H     0.22096   0.20501   0.54525   0.00000  Uiso   1.00
H232   H     0.04909   0.21269   0.85506   0.00000  Uiso   1.00
H233   H     0.09845   0.39842   0.86899   0.00000  Uiso   1.00
H234   H     0.07962   0.24850   0.50209   0.00000  Uiso   1.00
H235   H     0.08947   0.27012   0.99507   0.00000  Uiso   1.00
H236   H     0.05725   0.55339   0.09326   0.00000  Uiso   1.00
H237   H     0.23232   0.54505   0.04616   0.00000  Uiso   1.00
H238   H     0.13541   0.54806   0.25325   0.00000  Uiso   1.00
H239   H     0.16990   0.42246   0.13235   0.00000  Uiso   1.00
H240   H     0.04717   0.55116   0.35789   0.00000  Uiso   1.00
H241   H     0.17410   0.41474   0.38717   0.00000  Uiso   1.00
H242   H     0.22194   0.54324   0.30050   0.00000  Uiso   1.00
H243   H     0.06893   0.57233   0.25884   0.00000  Uiso   1.00
H244   H     0.08773   0.59326   0.00561   0.00000  Uiso   1.00
H245   H     0.15180   0.56963   0.00184   0.00000  Uiso   1.00
H246   H     0.05688   0.55038   0.59590   0.00000  Uiso   1.00
H247   H     0.16576   0.42658   0.87970   0.00000  Uiso   1.00
H248   H     0.14006   0.55877   0.75022   0.00000  Uiso   1.00
H249   H     0.15791   0.43666   0.62358   0.00000  Uiso   1.00
H250   H     0.05543   0.54960   0.85632   0.00000  Uiso   1.00
H251   H     0.23138   0.54706   0.54897   0.00000  Uiso   1.00
H252   H     0.22167   0.54019   0.79893   0.00000  Uiso   1.00
H253   H     0.07333   0.58012   0.75449   0.00000  Uiso   1.00
H254   H     0.14412   0.55954   0.50350   0.00000  Uiso   1.00
H255   H     0.08309   0.59451   0.50827   0.00000  Uiso   1.00
H256   H     0.09976   0.40161   0.62527   0.00000  Uiso   1.00
H257   H     0.01018   0.71125   0.17259   0.00000  Uiso   1.00
H258   H     0.10078   0.72586   0.12258   0.00000  Uiso   1.00
H259   H     0.16506   0.75924   0.12868   0.00000  Uiso   1.00
H260   H     0.19857   0.71591   0.22353   0.00000  Uiso   1.00
H261   H     0.10869   0.71631   0.37705   0.00000  Uiso   1.00
H262   H     0.17406   0.74867   0.38262   0.00000  Uiso   1.00
H263   H     0.19563   0.71728   0.47676   0.00000  Uiso   1.00
H264   H     0.02415   0.70664   0.42412   0.00000  Uiso   1.00
H265   H     0.10712   0.72131   0.63049   0.00000  Uiso   1.00
H266   H     0.16757   0.75719   0.63178   0.00000  Uiso   1.00
H267   H     0.19270   0.72079   0.72105   0.00000  Uiso   1.00
H268   H     0.10543   0.71901   0.87907   0.00000  Uiso   1.00
H269   H     0.16646   0.75268   0.88222   0.00000  Uiso   1.00
H270   H     0.19402   0.72116   0.97206   0.00000  Uiso   1.00
H271   H     0.02241   0.70656   0.92460   0.00000  Uiso   1.00
H272   H     0.01588   0.70519   0.67520   0.00000  Uiso   1.00
H273   H     0.04890   0.88332   0.10258   0.00000  Uiso   1.00
H274   H     0.14414   0.89187   0.24951   0.00000  Uiso   1.00
H275   H     0.08010   0.92295   0.25481   0.00000  Uiso   1.00
H276   H     0.05489   0.88229   0.34194   0.00000  Uiso   1.00
H277   H     0.22348   0.87234   0.29868   0.00000  Uiso   1.00
H278   H     0.22234   0.87541   0.04564   0.00000  Uiso   1.00
H279   H     0.14820   0.89801   0.48924   0.00000  Uiso   1.00
H280   H     0.08256   0.92315   0.49536   0.00000  Uiso   1.00
H281   H     0.07222   0.91953   0.00342   0.00000  Uiso   1.00
H282   H     0.13827   0.89169   0.00070   0.00000  Uiso   1.00
H283   H     0.05190   0.88567   0.59647   0.00000  Uiso   1.00
H284   H     0.14637   0.89599   0.74652   0.00000  Uiso   1.00
H285   H     0.08568   0.92336   0.75798   0.00000  Uiso   1.00
H286   H     0.05191   0.88650   0.84497   0.00000  Uiso   1.00
H287   H     0.22743   0.87753   0.53877   0.00000  Uiso   1.00
H288   H     0.23036   0.87637   0.79516   0.00000  Uiso   1.00
H289   H     0.44301   0.11291   0.21123   0.00000  Uiso   1.00
H290   H     0.35072   0.09900   0.12571   0.00000  Uiso   1.00
H291   H     0.40987   0.06388   0.12071   0.00000  Uiso   1.00
H292   H     0.44219   0.11027   0.46196   0.00000  Uiso   1.00
H293   H     0.35531   0.10653   0.36768   0.00000  Uiso   1.00
H294   H     0.42258   0.08471   0.37744   0.00000  Uiso   1.00
H295   H     0.26834   0.12024   0.17238   0.00000  Uiso   1.00
H296   H     0.26665   0.12169   0.41864   0.00000  Uiso   1.00
H297   H     0.44264   0.11507   0.72249   0.00000  Uiso   1.00
H298   H     0.36027   0.11736   0.62267   0.00000  Uiso   1.00
H299   H     0.41888   0.08230   0.62441   0.00000  Uiso   1.00
H300   H     0.44436   0.11455   0.97343   0.00000  Uiso   1.00
H301   H     0.36057   0.11178   0.88112   0.00000  Uiso   1.00
H302   H     0.41970   0.07674   0.87813   0.00000  Uiso   1.00
H303   H     0.27148   0.12023   0.67312   0.00000  Uiso   1.00
H304   H     0.27165   0.12429   0.91878   0.00000  Uiso   1.00
H305   H     0.39243   0.27840   0.25031   0.00000  Uiso   1.00
H306   H     0.32776   0.24912   0.25737   0.00000  Uiso   1.00
H307   H     0.30290   0.28198   0.09766   0.00000  Uiso   1.00
H308   H     0.29512   0.28654   0.35606   0.00000  Uiso   1.00
H309   H     0.48214   0.28816   0.04759   0.00000  Uiso   1.00
H310   H     0.47608   0.28890   0.29557   0.00000  Uiso   1.00
H311   H     0.39930   0.26702   0.49583   0.00000  Uiso   1.00
H312   H     0.33796   0.22922   0.49064   0.00000  Uiso   1.00
H313   H     0.38944   0.28372   0.74532   0.00000  Uiso   1.00
H314   H     0.32480   0.25195   0.75583   0.00000  Uiso   1.00
H315   H     0.29938   0.27752   0.59700   0.00000  Uiso   1.00
H316   H     0.47059   0.29251   0.79188   0.00000  Uiso   1.00
H317   H     0.29918   0.28456   0.85463   0.00000  Uiso   1.00
H318   H     0.47757   0.28866   0.54639   0.00000  Uiso   1.00
H319   H     0.33494   0.23359   0.99546   0.00000  Uiso   1.00
H320   H     0.39665   0.26987   0.99492   0.00000  Uiso   1.00
H321   H     0.44423   0.44613   0.22458   0.00000  Uiso   1.00
H322   H     0.26458   0.45630   0.42407   0.00000  Uiso   1.00
H323   H     0.35542   0.44107   0.13496   0.00000  Uiso   1.00
H324   H     0.44734   0.45036   0.47768   0.00000  Uiso   1.00
H325   H     0.35304   0.44421   0.37868   0.00000  Uiso   1.00
H326   H     0.33375   0.57663   0.25493   0.00000  Uiso   1.00
H327   H     0.26838   0.45906   0.17588   0.00000  Uiso   1.00
H328   H     0.41323   0.40442   0.37507   0.00000  Uiso   1.00
H329   H     0.33682   0.58266   0.01031   0.00000  Uiso   1.00
H330   H     0.41454   0.40520   0.12721   0.00000  Uiso   1.00
H331   H     0.44847   0.44933   0.72707   0.00000  Uiso   1.00
H332   H     0.35162   0.43783   0.63024   0.00000  Uiso   1.00
H333   H     0.44346   0.44428   0.97427   0.00000  Uiso   1.00
H334   H     0.41390   0.40650   0.63045   0.00000  Uiso   1.00
H335   H     0.35289   0.43611   0.87496   0.00000  Uiso   1.00
H336   H     0.34268   0.56561   0.74469   0.00000  Uiso   1.00
H337   H     0.27248   0.46047   0.67611   0.00000  Uiso   1.00
H338   H     0.26131   0.45535   0.92181   0.00000  Uiso   1.00
H339   H     0.41544   0.40654   0.87801   0.00000  Uiso   1.00
H340   H     0.40574   0.59612   0.74182   0.00000  Uiso   1.00
H341   H     0.33181   0.57720   0.50644   0.00000  Uiso   1.00
H342   H     0.34660   0.76322   0.12215   0.00000  Uiso   1.00
H343   H     0.40988   0.73013   0.12111   0.00000  Uiso   1.00
H344   H     0.30398   0.61911   0.09891   0.00000  Uiso   1.00
H345   H     0.42585   0.75715   0.38045   0.00000  Uiso   1.00
H346   H     0.36098   0.78315   0.37336   0.00000  Uiso   1.00
H347   H     0.30564   0.61728   0.35019   0.00000  Uiso   1.00
H348   H     0.26807   0.78997   0.17079   0.00000  Uiso   1.00
H349   H     0.39095   0.61293   0.25497   0.00000  Uiso   1.00
H350   H     0.48018   0.62124   0.04963   0.00000  Uiso   1.00
H351   H     0.27609   0.79115   0.42249   0.00000  Uiso   1.00
H352   H     0.44491   0.77887   0.21700   0.00000  Uiso   1.00
H353   H     0.46930   0.62960   0.29267   0.00000  Uiso   1.00
H354   H     0.44677   0.78181   0.47103   0.00000  Uiso   1.00
H355   H     0.39790   0.60250   0.49963   0.00000  Uiso   1.00
H356   H     0.40015   0.61337   0.00005   0.00000  Uiso   1.00
H357   H     0.35269   0.77121   0.87256   0.00000  Uiso   1.00
H358   H     0.41401   0.74262   0.62867   0.00000  Uiso   1.00
H359   H     0.27148   0.78956   0.92018   0.00000  Uiso   1.00
H360   H     0.48164   0.62300   0.54380   0.00000  Uiso   1.00
H361   H     0.41804   0.74071   0.87533   0.00000  Uiso   1.00
H362   H     0.44941   0.77935   0.72573   0.00000  Uiso   1.00
H363   H     0.45277   0.79270   0.98987   0.00000  Uiso   1.00
H364   H     0.35385   0.77650   0.62303   0.00000  Uiso   1.00
H365   H     0.26990   0.78681   0.66471   0.00000  Uiso   1.00
H366   H     0.29843   0.61955   0.60543   0.00000  Uiso   1.00
H367   H     0.30252   0.61319   0.85568   0.00000  Uiso   1.00
H368   H     0.48769   0.95199   0.29230   0.00000  Uiso   1.00
H369   H     0.39761   0.94026   0.24452   0.00000  Uiso   1.00
H370   H     0.33112   0.91392   0.25308   0.00000  Uiso   1.00
H371   H     0.30884   0.93711   0.08874   0.00000  Uiso   1.00
H372   H     0.30467   0.94100   0.34177   0.00000  Uiso   1.00
H373   H     0.49080   0.95364   0.04115   0.00000  Uiso   1.00
H374   H     0.39241   0.95283   0.49810   0.00000  Uiso   1.00
H375   H     0.47364   0.96156   0.54176   0.00000  Uiso   1.00
H376   H     0.39473   0.94294   0.74950   0.00000  Uiso   1.00
H377   H     0.33715   0.90741   0.75307   0.00000  Uiso   1.00
H378   H     0.30454   0.94783   0.59803   0.00000  Uiso   1.00
H379   H     0.47607   0.96003   0.79207   0.00000  Uiso   1.00
H380   H     0.29992   0.95100   0.85313   0.00000  Uiso   1.00
H381   H     0.32575   0.91649   0.50358   0.00000  Uiso   1.00
H382   H     0.33517   0.90393   0.99678   0.00000  Uiso   1.00
H383   H     0.39961   0.93365   0.99341   0.00000  Uiso   1.00
H384   H     0.52302   0.04018   0.16575   0.00000  Uiso   1.00
H385   H     0.59795   0.06601   0.11558   0.00000  Uiso   1.00
H386   H     0.66850   0.08988   0.12967   0.00000  Uiso   1.00
H387   H     0.69554   0.04797   0.21950   0.00000  Uiso   1.00
H388   H     0.60072   0.06901   0.36101   0.00000  Uiso   1.00
H389   H     0.66505   0.09610   0.37013   0.00000  Uiso   1.00
H390   H     0.69063   0.06239   0.46475   0.00000  Uiso   1.00
H391   H     0.52355   0.04230   0.41658   0.00000  Uiso   1.00
H392   H     0.60747   0.05733   0.62696   0.00000  Uiso   1.00
H393   H     0.66903   0.08845   0.62920   0.00000  Uiso   1.00
H394   H     0.69406   0.05502   0.71160   0.00000  Uiso   1.00
H395   H     0.60880   0.05489   0.87376   0.00000  Uiso   1.00
H396   H     0.67383   0.07983   0.87437   0.00000  Uiso   1.00
H397   H     0.69992   0.04919   0.96964   0.00000  Uiso   1.00
H398   H     0.51616   0.04519   0.66967   0.00000  Uiso   1.00
H399   H     0.52357   0.04165   0.91394   0.00000  Uiso   1.00
H400   H     0.72731   0.21154   0.04579   0.00000  Uiso   1.00
H401   H     0.58507   0.26268   0.24893   0.00000  Uiso   1.00
H402   H     0.51643   0.37761   0.42246   0.00000  Uiso   1.00
H403   H     0.56082   0.22525   0.34521   0.00000  Uiso   1.00
H404   H     0.73027   0.21001   0.29757   0.00000  Uiso   1.00
H405   H     0.54896   0.21430   0.10397   0.00000  Uiso   1.00
H406   H     0.60191   0.39569   0.37663   0.00000  Uiso   1.00
H407   H     0.60300   0.38509   0.12431   0.00000  Uiso   1.00
H408   H     0.52686   0.37261   0.17001   0.00000  Uiso   1.00
H409   H     0.64686   0.22117   0.25001   0.00000  Uiso   1.00
H410   H     0.70426   0.37757   0.23320   0.00000  Uiso   1.00
H411   H     0.69505   0.38896   0.47565   0.00000  Uiso   1.00
H412   H     0.57648   0.25149   0.00200   0.00000  Uiso   1.00
H413   H     0.58679   0.26088   0.49939   0.00000  Uiso   1.00
H414   H     0.60265   0.39208   0.62352   0.00000  Uiso   1.00
H415   H     0.64270   0.22239   0.99574   0.00000  Uiso   1.00
H416   H     0.52880   0.36755   0.91997   0.00000  Uiso   1.00
H417   H     0.58470   0.25968   0.75046   0.00000  Uiso   1.00
H418   H     0.55062   0.21711   0.84682   0.00000  Uiso   1.00
H419   H     0.64593   0.22665   0.50237   0.00000  Uiso   1.00
H420   H     0.55204   0.21219   0.59830   0.00000  Uiso   1.00
H421   H     0.72311   0.20524   0.79355   0.00000  Uiso   1.00
H422   H     0.69782   0.38189   0.73215   0.00000  Uiso   1.00
H423   H     0.51657   0.37875   0.67072   0.00000  Uiso   1.00
H424   H     0.69305   0.38949   0.97042   0.00000  Uiso   1.00
H425   H     0.65226   0.23459   0.73888   0.00000  Uiso   1.00
H426   H     0.73026   0.20753   0.54277   0.00000  Uiso   1.00
H427   H     0.55262   0.55472   0.10335   0.00000  Uiso   1.00
H428   H     0.64972   0.56651   0.25151   0.00000  Uiso   1.00
H429   H     0.72683   0.54557   0.04937   0.00000  Uiso   1.00
H430   H     0.56207   0.55960   0.33705   0.00000  Uiso   1.00
H431   H     0.66319   0.43118   0.37631   0.00000  Uiso   1.00
H432   H     0.72712   0.54132   0.29739   0.00000  Uiso   1.00
H433   H     0.66520   0.41983   0.13141   0.00000  Uiso   1.00
H434   H     0.58271   0.59817   0.25779   0.00000  Uiso   1.00
H435   H     0.64158   0.56089   0.00710   0.00000  Uiso   1.00
H436   H     0.58134   0.59507   0.00552   0.00000  Uiso   1.00
H437   H     0.55700   0.55675   0.59347   0.00000  Uiso   1.00
H438   H     0.63669   0.54475   0.75216   0.00000  Uiso   1.00
H439   H     0.55727   0.55561   0.84650   0.00000  Uiso   1.00
H440   H     0.66924   0.42112   0.63263   0.00000  Uiso   1.00
H441   H     0.72916   0.54475   0.79474   0.00000  Uiso   1.00
H442   H     0.72264   0.54166   0.54730   0.00000  Uiso   1.00
H443   H     0.66357   0.42933   0.88072   0.00000  Uiso   1.00
H444   H     0.58344   0.58424   0.50170   0.00000  Uiso   1.00
H445   H     0.57531   0.57970   0.75776   0.00000  Uiso   1.00
H446   H     0.59689   0.40273   0.87495   0.00000  Uiso   1.00
H447   H     0.63635   0.54422   0.50162   0.00000  Uiso   1.00
H448   H     0.51839   0.71401   0.17082   0.00000  Uiso   1.00
H449   H     0.60439   0.72626   0.12862   0.00000  Uiso   1.00
H450   H     0.66572   0.75829   0.13127   0.00000  Uiso   1.00
H451   H     0.70708   0.71110   0.23374   0.00000  Uiso   1.00
H452   H     0.60057   0.73441   0.36510   0.00000  Uiso   1.00
H453   H     0.66344   0.76845   0.36756   0.00000  Uiso   1.00
H454   H     0.69947   0.71945   0.46872   0.00000  Uiso   1.00
H455   H     0.53036   0.70605   0.41847   0.00000  Uiso   1.00
H456   H     0.61012   0.72257   0.62670   0.00000  Uiso   1.00
H457   H     0.67221   0.75285   0.62722   0.00000  Uiso   1.00
H458   H     0.69608   0.72483   0.72370   0.00000  Uiso   1.00
H459   H     0.60184   0.72853   0.87152   0.00000  Uiso   1.00
H460   H     0.66565   0.75791   0.88092   0.00000  Uiso   1.00
H461   H     0.52489   0.71026   0.67117   0.00000  Uiso   1.00
H462   H     0.69708   0.71900   0.97337   0.00000  Uiso   1.00
H463   H     0.52534   0.71063   0.92366   0.00000  Uiso   1.00
H464   H     0.50124   0.62327   0.79528   0.00000  Uiso   1.00
H465   H     0.55550   0.87399   0.09778   0.00000  Uiso   1.00
H466   H     0.64525   0.88686   0.25591   0.00000  Uiso   1.00
H467   H     0.58353   0.92289   0.25187   0.00000  Uiso   1.00
H468   H     0.73364   0.87993   0.29652   0.00000  Uiso   1.00
H469   H     0.54792   0.87891   0.35162   0.00000  Uiso   1.00
H470   H     0.72342   0.87442   0.04544   0.00000  Uiso   1.00
H471   H     0.64646   0.89259   0.00120   0.00000  Uiso   1.00
H472   H     0.58363   0.92553   0.00048   0.00000  Uiso   1.00
H473   H     0.55775   0.88510   0.59267   0.00000  Uiso   1.00
H474   H     0.64345   0.89231   0.75391   0.00000  Uiso   1.00
H475   H     0.58720   0.93092   0.74739   0.00000  Uiso   1.00
H476   H     0.55986   0.88784   0.84167   0.00000  Uiso   1.00
H477   H     0.72957   0.87861   0.79804   0.00000  Uiso   1.00
H478   H     0.73207   0.87645   0.54897   0.00000  Uiso   1.00
H479   H     0.57659   0.91667   0.50393   0.00000  Uiso   1.00
H480   H     0.63644   0.87767   0.50469   0.00000  Uiso   1.00
H481   H     0.76914   0.12110   0.42253   0.00000  Uiso   1.00
H482   H     0.94515   0.10327   0.21768   0.00000  Uiso   1.00
H483   H     0.85032   0.10395   0.11751   0.00000  Uiso   1.00
H484   H     0.91246   0.07238   0.12483   0.00000  Uiso   1.00
H485   H     0.77715   0.12686   0.16787   0.00000  Uiso   1.00
H486   H     0.94783   0.12092   0.46917   0.00000  Uiso   1.00
H487   H     0.86218   0.12324   0.37928   0.00000  Uiso   1.00
H488   H     0.92948   0.08962   0.38404   0.00000  Uiso   1.00
H489   H     0.94643   0.11899   0.72163   0.00000  Uiso   1.00
H490   H     0.85847   0.10911   0.62370   0.00000  Uiso   1.00
H491   H     0.92233   0.07897   0.62849   0.00000  Uiso   1.00
H492   H     0.95292   0.12043   0.97851   0.00000  Uiso   1.00
H493   H     0.86167   0.11397   0.88015   0.00000  Uiso   1.00
H494   H     0.92719   0.08633   0.88160   0.00000  Uiso   1.00
H495   H     0.77164   0.12096   0.66722   0.00000  Uiso   1.00
H496   H     0.77076   0.12453   0.91866   0.00000  Uiso   1.00
H497   H     0.90074   0.26507   0.24164   0.00000  Uiso   1.00
H498   H     0.83819   0.23212   0.24281   0.00000  Uiso   1.00
H499   H     0.79781   0.28707   0.10545   0.00000  Uiso   1.00
H500   H     0.97561   0.29253   0.29940   0.00000  Uiso   1.00
H501   H     0.80324   0.28059   0.34400   0.00000  Uiso   1.00
H502   H     0.97413   0.29406   0.04734   0.00000  Uiso   1.00
H503   H     0.91012   0.39594   0.36759   0.00000  Uiso   1.00
H504   H     0.82586   0.25049   0.00135   0.00000  Uiso   1.00
H505   H     0.89191   0.27829   0.49926   0.00000  Uiso   1.00
H506   H     0.88472   0.28400   0.00513   0.00000  Uiso   1.00
H507   H     0.90143   0.26788   0.74497   0.00000  Uiso   1.00
H508   H     0.83363   0.23546   0.75175   0.00000  Uiso   1.00
H509   H     0.79700   0.28583   0.60496   0.00000  Uiso   1.00
H510   H     0.97109   0.29648   0.79485   0.00000  Uiso   1.00
H511   H     0.80779   0.27479   0.84143   0.00000  Uiso   1.00
H512   H     0.98498   0.28947   0.54346   0.00000  Uiso   1.00
H513   H     0.82723   0.24800   0.50674   0.00000  Uiso   1.00
H514   H     0.82309   0.58485   0.00380   0.00000  Uiso   1.00
H515   H     0.95458   0.46139   0.23703   0.00000  Uiso   1.00
H516   H     0.86380   0.45281   0.13300   0.00000  Uiso   1.00
H517   H     0.92311   0.41496   0.13351   0.00000  Uiso   1.00
H518   H     0.84807   0.42803   0.36835   0.00000  Uiso   1.00
H519   H     0.77165   0.45691   0.17207   0.00000  Uiso   1.00
H520   H     0.75663   0.45197   0.42399   0.00000  Uiso   1.00
H521   H     0.94135   0.44610   0.47081   0.00000  Uiso   1.00
H522   H     0.83461   0.57677   0.25423   0.00000  Uiso   1.00
H523   H     0.94153   0.45041   0.72267   0.00000  Uiso   1.00
H524   H     0.76273   0.45616   0.67242   0.00000  Uiso   1.00
H525   H     0.85319   0.44602   0.63249   0.00000  Uiso   1.00
H526   H     0.91848   0.41375   0.87878   0.00000  Uiso   1.00
H527   H     0.94857   0.45345   0.97673   0.00000  Uiso   1.00
H528   H     0.77214   0.46068   0.92533   0.00000  Uiso   1.00
H529   H     0.85431   0.44073   0.87820   0.00000  Uiso   1.00
H530   H     0.83798   0.55957   0.74342   0.00000  Uiso   1.00
H531   H     0.91106   0.40879   0.62639   0.00000  Uiso   1.00
H532   H     0.90044   0.59046   0.74054   0.00000  Uiso   1.00
H533   H     0.83508   0.57061   0.50251   0.00000  Uiso   1.00
H534   H     0.98220   0.61987   0.29677   0.00000  Uiso   1.00
H535   H     0.88915   0.61119   0.00258   0.00000  Uiso   1.00
H536   H     0.97199   0.62289   0.05126   0.00000  Uiso   1.00
H537   H     0.92325   0.75452   0.13310   0.00000  Uiso   1.00
H538   H     0.95100   0.78161   0.22807   0.00000  Uiso   1.00
H539   H     0.86261   0.78566   0.12823   0.00000  Uiso   1.00
H540   H     0.77296   0.79001   0.16875   0.00000  Uiso   1.00
H541   H     0.91299   0.73450   0.37466   0.00000  Uiso   1.00
H542   H     0.84908   0.77079   0.37406   0.00000  Uiso   1.00
H543   H     0.80121   0.61519   0.35089   0.00000  Uiso   1.00
H544   H     0.80554   0.61211   0.09960   0.00000  Uiso   1.00
H545   H     0.94901   0.78394   0.47246   0.00000  Uiso   1.00
H546   H     0.77848   0.79343   0.41950   0.00000  Uiso   1.00
H547   H     0.89343   0.61219   0.25188   0.00000  Uiso   1.00
H548   H     0.94544   0.77877   0.72374   0.00000  Uiso   1.00
H549   H     0.77803   0.79283   0.91919   0.00000  Uiso   1.00
H550   H     0.92134   0.74539   0.62730   0.00000  Uiso   1.00
H551   H     0.85685   0.77501   0.62555   0.00000  Uiso   1.00
H552   H     0.79663   0.62219   0.60972   0.00000  Uiso   1.00
H553   H     0.77822   0.79396   0.67152   0.00000  Uiso   1.00
H554   H     0.90732   0.72715   0.86806   0.00000  Uiso   1.00
H555   H     0.98794   0.61522   0.79850   0.00000  Uiso   1.00
H556   H     0.97040   0.62417   0.54357   0.00000  Uiso   1.00
H557   H     0.79686   0.62223   0.84973   0.00000  Uiso   1.00
H558   H     0.84641   0.76140   0.86646   0.00000  Uiso   1.00
H559   H     0.94537   0.77778   0.96740   0.00000  Uiso   1.00
H560   H     0.89449   0.61101   0.50258   0.00000  Uiso   1.00
H561   H     0.96777   0.95970   0.29492   0.00000  Uiso   1.00
H562   H     0.88139   0.95885   0.24739   0.00000  Uiso   1.00
H563   H     0.82128   0.92645   0.25170   0.00000  Uiso   1.00
H564   H     0.80178   0.95051   0.08906   0.00000  Uiso   1.00
H565   H     0.80313   0.95001   0.34910   0.00000  Uiso   1.00
H566   H     0.97893   0.96123   0.04492   0.00000  Uiso   1.00
H567   H     0.90363   0.93221   0.99418   0.00000  Uiso   1.00
H568   H     0.89691   0.94393   0.75577   0.00000  Uiso   1.00
H569   H     0.83169   0.91222   0.75334   0.00000  Uiso   1.00
H570   H     0.80957   0.94590   0.59801   0.00000  Uiso   1.00
H571   H     0.80258   0.95725   0.85641   0.00000  Uiso   1.00
H572   H     0.97871   0.95818   0.54697   0.00000  Uiso   1.00
H573   H     0.98175   0.95895   0.79512   0.00000  Uiso   1.00
H574   H     0.89119   0.94202   0.50263   0.00000  Uiso   1.00
H575   H     0.84145   0.90205   0.99980   0.00000  Uiso   1.00
H576   H     0.82759   0.91303   0.50694   0.00000  Uiso   1.00
C577   C     0.17716   0.18619   0.41923   0.00000  Uiso   1.00
C578   C     0.12392   0.05534   0.09230   0.00000  Uiso   1.00
C579   C     0.16227   0.07355   0.09159   0.00000  Uiso   1.00
C580   C     0.07310   0.01769   0.04763   0.00000  Uiso   1.00
C581   C     0.11379   0.03294   0.04812   0.00000  Uiso   1.00
C582   C     0.21692   0.10144   0.04565   0.00000  Uiso   1.00
C583   C     0.18827   0.07112   0.04990   0.00000  Uiso   1.00
C584   C     0.12428   0.05500   0.34205   0.00000  Uiso   1.00
C585   C     0.15859   0.07415   0.34480   0.00000  Uiso   1.00
C586   C     0.14066   0.03148   0.25577   0.00000  Uiso   1.00
C587   C     0.17615   0.05255   0.25914   0.00000  Uiso   1.00
C588   C     0.07109   0.01765   0.29764   0.00000  Uiso   1.00
C589   C     0.11271   0.03299   0.29774   0.00000  Uiso   1.00
C590   C     0.21544   0.10601   0.29823   0.00000  Uiso   1.00
C591   C     0.18636   0.07523   0.30235   0.00000  Uiso   1.00
C592   C     0.17839   0.04838   0.00709   0.00000  Uiso   1.00
C593   C     0.17516   0.18844   0.17072   0.00000  Uiso   1.00
C594   C     0.14185   0.02873   0.00816   0.00000  Uiso   1.00
C595   C     0.10985   0.19944   0.37467   0.00000  Uiso   1.00
C596   C     0.13460   0.19820   0.41871   0.00000  Uiso   1.00
C597   C     0.13180   0.04741   0.59153   0.00000  Uiso   1.00
C598   C     0.16855   0.06564   0.59223   0.00000  Uiso   1.00
C599   C     0.07573   0.01742   0.54241   0.00000  Uiso   1.00
C600   C     0.11605   0.03189   0.54378   0.00000  Uiso   1.00
C601   C     0.21955   0.10140   0.54571   0.00000  Uiso   1.00
C602   C     0.19244   0.06919   0.54770   0.00000  Uiso   1.00
C603   C     0.12790   0.05277   0.84631   0.00000  Uiso   1.00
C604   C     0.16574   0.06901   0.85001   0.00000  Uiso   1.00
C605   C     0.14317   0.02854   0.76154   0.00000  Uiso   1.00
C606   C     0.17807   0.04986   0.76174   0.00000  Uiso   1.00
C607   C     0.07288   0.02100   0.79744   0.00000  Uiso   1.00
C608   C     0.11384   0.03630   0.80069   0.00000  Uiso   1.00
C609   C     0.21929   0.10195   0.80219   0.00000  Uiso   1.00
C610   C     0.18966   0.07123   0.80629   0.00000  Uiso   1.00
C611   C     0.17971   0.18972   0.92393   0.00000  Uiso   1.00
C612   C     0.17895   0.18457   0.67147   0.00000  Uiso   1.00
C613   C     0.17870   0.05055   0.50132   0.00000  Uiso   1.00
C614   C     0.11065   0.19954   0.63225   0.00000  Uiso   1.00
C615   C     0.10883   0.19994   0.88325   0.00000  Uiso   1.00
C616   C     0.13759   0.19943   0.67403   0.00000  Uiso   1.00
C617   C     0.14204   0.03203   0.50148   0.00000  Uiso   1.00
C618   C     0.12471   0.22458   0.21733   0.00000  Uiso   1.00
C619   C     0.18018   0.38442   0.26114   0.00000  Uiso   1.00
C620   C     0.13390   0.20371   0.17122   0.00000  Uiso   1.00
C621   C     0.12483   0.39209   0.09308   0.00000  Uiso   1.00
C622   C     0.14103   0.37217   0.00553   0.00000  Uiso   1.00
C623   C     0.14276   0.36417   0.26007   0.00000  Uiso   1.00
C624   C     0.07261   0.22263   0.12955   0.00000  Uiso   1.00
C625   C     0.03070   0.27255   0.17057   0.00000  Uiso   1.00
C626   C     0.06262   0.24359   0.17438   0.00000  Uiso   1.00
C627   C     0.08865   0.24451   0.21765   0.00000  Uiso   1.00
C628   C     0.07217   0.35619   0.04647   0.00000  Uiso   1.00
C629   C     0.11420   0.37040   0.04888   0.00000  Uiso   1.00
C630   C     0.07496   0.22210   0.37479   0.00000  Uiso   1.00
C631   C     0.03388   0.27240   0.41948   0.00000  Uiso   1.00
C632   C     0.06415   0.24200   0.42029   0.00000  Uiso   1.00
C633   C     0.08574   0.23483   0.46499   0.00000  Uiso   1.00
C634   C     0.07166   0.35492   0.29881   0.00000  Uiso   1.00
C635   C     0.11539   0.36570   0.30328   0.00000  Uiso   1.00
C636   C     0.12853   0.38207   0.34934   0.00000  Uiso   1.00
C637   C     0.11984   0.21451   0.46421   0.00000  Uiso   1.00
C638   C     0.17696   0.39161   0.00759   0.00000  Uiso   1.00
C639   C     0.10769   0.20200   0.12776   0.00000  Uiso   1.00
C640   C     0.17627   0.38949   0.75701   0.00000  Uiso   1.00
C641   C     0.12743   0.22264   0.71713   0.00000  Uiso   1.00
C642   C     0.07153   0.21793   0.88563   0.00000  Uiso   1.00
C643   C     0.14148   0.36709   0.75595   0.00000  Uiso   1.00
C644   C     0.07745   0.22124   0.63296   0.00000  Uiso   1.00
C645   C     0.03910   0.27470   0.67202   0.00000  Uiso   1.00
C646   C     0.06741   0.24377   0.67496   0.00000  Uiso   1.00
C647   C     0.09166   0.24195   0.71957   0.00000  Uiso   1.00
C648   C     0.06799   0.36147   0.54680   0.00000  Uiso   1.00
C649   C     0.11160   0.37243   0.55064   0.00000  Uiso   1.00
C650   C     0.11341   0.36968   0.79844   0.00000  Uiso   1.00
C651   C     0.12717   0.22806   0.96668   0.00000  Uiso   1.00
C652   C     0.13881   0.20545   0.92504   0.00000  Uiso   1.00
C653   C     0.03196   0.27286   0.92205   0.00000  Uiso   1.00
C654   C     0.06467   0.24456   0.92638   0.00000  Uiso   1.00
C655   C     0.13934   0.36672   0.51017   0.00000  Uiso   1.00
C656   C     0.09324   0.24933   0.96577   0.00000  Uiso   1.00
C657   C     0.07220   0.35333   0.79582   0.00000  Uiso   1.00
C658   C     0.17590   0.38794   0.50907   0.00000  Uiso   1.00
C659   C     0.12043   0.39372   0.83919   0.00000  Uiso   1.00
C660   C     0.12168   0.39503   0.59443   0.00000  Uiso   1.00
C661   C     0.11080   0.52898   0.12946   0.00000  Uiso   1.00
C662   C     0.07589   0.55167   0.12668   0.00000  Uiso   1.00
C663   C     0.17850   0.51995   0.17301   0.00000  Uiso   1.00
C664   C     0.13499   0.53207   0.17266   0.00000  Uiso   1.00
C665   C     0.06143   0.57137   0.17192   0.00000  Uiso   1.00
C666   C     0.11845   0.54807   0.21879   0.00000  Uiso   1.00
C667   C     0.12370   0.55747   0.47163   0.00000  Uiso   1.00
C668   C     0.08222   0.56493   0.21956   0.00000  Uiso   1.00
C669   C     0.21576   0.44118   0.04942   0.00000  Uiso   1.00
C670   C     0.21503   0.43827   0.29953   0.00000  Uiso   1.00
C671   C     0.10658   0.53258   0.38766   0.00000  Uiso   1.00
C672   C     0.16178   0.40862   0.09694   0.00000  Uiso   1.00
C673   C     0.06912   0.55216   0.39089   0.00000  Uiso   1.00
C674   C     0.08681   0.57592   0.47476   0.00000  Uiso   1.00
C675   C     0.17736   0.52308   0.42550   0.00000  Uiso   1.00
C676   C     0.13452   0.53561   0.42862   0.00000  Uiso   1.00
C677   C     0.06005   0.57292   0.43378   0.00000  Uiso   1.00
C678   C     0.18758   0.41052   0.05328   0.00000  Uiso   1.00
C679   C     0.18838   0.40531   0.30546   0.00000  Uiso   1.00
C680   C     0.16592   0.40047   0.35212   0.00000  Uiso   1.00
C681   C     0.18537   0.40953   0.80231   0.00000  Uiso   1.00
C682   C     0.18179   0.41450   0.54925   0.00000  Uiso   1.00
C683   C     0.09304   0.57546   0.97160   0.00000  Uiso   1.00
C684   C     0.15910   0.40911   0.84476   0.00000  Uiso   1.00
C685   C     0.11062   0.53064   0.63088   0.00000  Uiso   1.00
C686   C     0.07227   0.54855   0.63170   0.00000  Uiso   1.00
C687   C     0.13030   0.55878   0.97210   0.00000  Uiso   1.00
C688   C     0.17853   0.52447   0.67177   0.00000  Uiso   1.00
C689   C     0.13693   0.53600   0.67468   0.00000  Uiso   1.00
C690   C     0.05755   0.56749   0.67612   0.00000  Uiso   1.00
C691   C     0.12285   0.55550   0.71675   0.00000  Uiso   1.00
C692   C     0.08231   0.56640   0.72098   0.00000  Uiso   1.00
C693   C     0.21719   0.43946   0.54861   0.00000  Uiso   1.00
C694   C     0.21414   0.44099   0.80114   0.00000  Uiso   1.00
C695   C     0.11435   0.53271   0.88690   0.00000  Uiso   1.00
C696   C     0.07698   0.55140   0.88782   0.00000  Uiso   1.00
C697   C     0.18225   0.52566   0.92563   0.00000  Uiso   1.00
C698   C     0.14053   0.53666   0.92988   0.00000  Uiso   1.00
C699   C     0.06684   0.57343   0.93052   0.00000  Uiso   1.00
C700   C     0.15580   0.41575   0.59390   0.00000  Uiso   1.00
C701   C     0.02727   0.59760   0.67213   0.00000  Uiso   1.00
C702   C     0.12092   0.72353   0.09107   0.00000  Uiso   1.00
C703   C     0.15749   0.74343   0.09231   0.00000  Uiso   1.00
C704   C     0.07159   0.68557   0.04733   0.00000  Uiso   1.00
C705   C     0.11125   0.70161   0.04922   0.00000  Uiso   1.00
C706   C     0.21395   0.77296   0.04621   0.00000  Uiso   1.00
C707   C     0.18239   0.74325   0.04799   0.00000  Uiso   1.00
C708   C     0.13060   0.71624   0.34224   0.00000  Uiso   1.00
C709   C     0.16758   0.73358   0.34668   0.00000  Uiso   1.00
C710   C     0.14379   0.69717   0.25532   0.00000  Uiso   1.00
C711   C     0.18147   0.71569   0.25636   0.00000  Uiso   1.00
C712   C     0.07470   0.68460   0.29557   0.00000  Uiso   1.00
C713   C     0.11706   0.70059   0.29680   0.00000  Uiso   1.00
C714   C     0.21913   0.76749   0.29732   0.00000  Uiso   1.00
C715   C     0.19195   0.73548   0.30200   0.00000  Uiso   1.00
C716   C     0.03113   0.60342   0.42736   0.00000  Uiso   1.00
C717   C     0.02883   0.60173   0.17191   0.00000  Uiso   1.00
C718   C     0.17423   0.72001   0.00703   0.00000  Uiso   1.00
C719   C     0.14013   0.69568   0.00860   0.00000  Uiso   1.00
C720   C     0.13744   0.69750   0.50587   0.00000  Uiso   1.00
C721   C     0.12584   0.71851   0.59763   0.00000  Uiso   1.00
C722   C     0.16091   0.74005   0.59666   0.00000  Uiso   1.00
C723   C     0.07283   0.68286   0.54960   0.00000  Uiso   1.00
C724   C     0.11329   0.69909   0.55020   0.00000  Uiso   1.00
C725   C     0.21497   0.77230   0.54684   0.00000  Uiso   1.00
C726   C     0.18347   0.74257   0.55029   0.00000  Uiso   1.00
C727   C     0.12386   0.71824   0.84402   0.00000  Uiso   1.00
C728   C     0.15948   0.73741   0.84637   0.00000  Uiso   1.00
C729   C     0.13820   0.69526   0.75564   0.00000  Uiso   1.00
C730   C     0.17278   0.71687   0.75530   0.00000  Uiso   1.00
C731   C     0.06993   0.68317   0.79718   0.00000  Uiso   1.00
C732   C     0.11222   0.69797   0.79800   0.00000  Uiso   1.00
C733   C     0.21540   0.76779   0.79582   0.00000  Uiso   1.00
C734   C     0.18415   0.73824   0.79989   0.00000  Uiso   1.00
C735   C     0.17486   0.71866   0.50742   0.00000  Uiso   1.00
C736   C     0.03573   0.60207   0.92713   0.00000  Uiso   1.00
C737   C     0.10688   0.86418   0.13292   0.00000  Uiso   1.00
C738   C     0.07060   0.88548   0.13281   0.00000  Uiso   1.00
C739   C     0.17684   0.85530   0.17226   0.00000  Uiso   1.00
C740   C     0.13506   0.87043   0.17387   0.00000  Uiso   1.00
C741   C     0.02988   0.93760   0.17197   0.00000  Uiso   1.00
C742   C     0.06205   0.90913   0.17558   0.00000  Uiso   1.00
C743   C     0.12325   0.88970   0.21856   0.00000  Uiso   1.00
C744   C     0.08742   0.90822   0.21889   0.00000  Uiso   1.00
C745   C     0.10679   0.86037   0.37767   0.00000  Uiso   1.00
C746   C     0.07252   0.88231   0.37693   0.00000  Uiso   1.00
C747   C     0.17685   0.85192   0.41919   0.00000  Uiso   1.00
C748   C     0.13483   0.86650   0.41763   0.00000  Uiso   1.00
C749   C     0.03137   0.93300   0.42330   0.00000  Uiso   1.00
C750   C     0.06337   0.90483   0.42250   0.00000  Uiso   1.00
C751   C     0.12524   0.88682   0.46315   0.00000  Uiso   1.00
C752   C     0.09053   0.90626   0.46440   0.00000  Uiso   1.00
C753   C     0.10782   0.86906   0.62709   0.00000  Uiso   1.00
C754   C     0.07067   0.88619   0.63214   0.00000  Uiso   1.00
C755   C     0.17763   0.85641   0.66758   0.00000  Uiso   1.00
C756   C     0.13733   0.87234   0.66926   0.00000  Uiso   1.00
C757   C     0.03245   0.93771   0.67421   0.00000  Uiso   1.00
C758   C     0.06256   0.90892   0.67648   0.00000  Uiso   1.00
C759   C     0.12560   0.89065   0.71508   0.00000  Uiso   1.00
C760   C     0.08913   0.90848   0.72091   0.00000  Uiso   1.00
C761   C     0.10728   0.86800   0.87845   0.00000  Uiso   1.00
C762   C     0.07238   0.88869   0.87756   0.00000  Uiso   1.00
C763   C     0.17719   0.85489   0.91857   0.00000  Uiso   1.00
C764   C     0.13602   0.87183   0.91950   0.00000  Uiso   1.00
C765   C     0.03039   0.93715   0.91949   0.00000  Uiso   1.00
C766   C     0.06146   0.90746   0.92138   0.00000  Uiso   1.00
C767   C     0.12009   0.88911   0.96531   0.00000  Uiso   1.00
C768   C     0.08375   0.90495   0.96763   0.00000  Uiso   1.00
C769   C     0.42377   0.11167   0.00622   0.00000  Uiso   1.00
C770   C     0.31867   0.14031   0.04784   0.00000  Uiso   1.00
C771   C     0.35847   0.12486   0.04725   0.00000  Uiso   1.00
C772   C     0.46470   0.05803   0.04177   0.00000  Uiso   1.00
C773   C     0.43337   0.08683   0.04567   0.00000  Uiso   1.00
C774   C     0.36953   0.10326   0.09173   0.00000  Uiso   1.00
C775   C     0.40773   0.08454   0.09031   0.00000  Uiso   1.00
C776   C     0.38782   0.13131   0.24554   0.00000  Uiso   1.00
C777   C     0.42533   0.11101   0.24508   0.00000  Uiso   1.00
C778   C     0.31942   0.14187   0.29360   0.00000  Uiso   1.00
C779   C     0.36215   0.12892   0.29007   0.00000  Uiso   1.00
C780   C     0.46833   0.06250   0.29158   0.00000  Uiso   1.00
C781   C     0.43819   0.09302   0.29268   0.00000  Uiso   1.00
C782   C     0.37605   0.11152   0.33586   0.00000  Uiso   1.00
C783   C     0.41502   0.09585   0.34035   0.00000  Uiso   1.00
C784   C     0.38742   0.13124   0.00796   0.00000  Uiso   1.00
C785   C     0.42377   0.11238   0.49804   0.00000  Uiso   1.00
C786   C     0.38749   0.13601   0.49761   0.00000  Uiso   1.00
C787   C     0.32013   0.14946   0.54450   0.00000  Uiso   1.00
C788   C     0.36294   0.13544   0.54271   0.00000  Uiso   1.00
C789   C     0.46419   0.06314   0.54381   0.00000  Uiso   1.00
C790   C     0.43439   0.09439   0.54484   0.00000  Uiso   1.00
C791   C     0.37665   0.11851   0.58763   0.00000  Uiso   1.00
C792   C     0.41304   0.09896   0.59006   0.00000  Uiso   1.00
C793   C     0.39071   0.13541   0.75815   0.00000  Uiso   1.00
C794   C     0.42328   0.11194   0.75620   0.00000  Uiso   1.00
C795   C     0.32498   0.14975   0.79880   0.00000  Uiso   1.00
C796   C     0.36427   0.13271   0.80093   0.00000  Uiso   1.00
C797   C     0.46687   0.06133   0.79446   0.00000  Uiso   1.00
C798   C     0.43474   0.09062   0.79884   0.00000  Uiso   1.00
C799   C     0.37745   0.11393   0.84541   0.00000  Uiso   1.00
C800   C     0.41296   0.09385   0.84447   0.00000  Uiso   1.00
C801   C     0.37433   0.27970   0.21580   0.00000  Uiso   1.00
C802   C     0.33607   0.26456   0.22078   0.00000  Uiso   1.00
C803   C     0.36028   0.29790   0.12709   0.00000  Uiso   1.00
C804   C     0.32212   0.27898   0.13100   0.00000  Uiso   1.00
C805   C     0.42892   0.31177   0.17033   0.00000  Uiso   1.00
C806   C     0.38773   0.29650   0.16961   0.00000  Uiso   1.00
C807   C     0.28473   0.22715   0.17222   0.00000  Uiso   1.00
C808   C     0.31026   0.26090   0.17724   0.00000  Uiso   1.00
C809   C     0.37558   0.27216   0.46660   0.00000  Uiso   1.00
C810   C     0.33965   0.25161   0.46352   0.00000  Uiso   1.00
C811   C     0.35503   0.30421   0.38914   0.00000  Uiso   1.00
C812   C     0.31793   0.28453   0.38811   0.00000  Uiso   1.00
C813   C     0.42533   0.31078   0.42268   0.00000  Uiso   1.00
C814   C     0.38507   0.29592   0.42568   0.00000  Uiso   1.00
C815   C     0.28197   0.22669   0.42140   0.00000  Uiso   1.00
C816   C     0.31101   0.25709   0.42561   0.00000  Uiso   1.00
C817   C     0.46515   0.39332   0.04771   0.00000  Uiso   1.00
C818   C     0.46400   0.39523   0.29673   0.00000  Uiso   1.00
C819   C     0.36966   0.28244   0.71299   0.00000  Uiso   1.00
C820   C     0.33210   0.26540   0.71727   0.00000  Uiso   1.00
C821   C     0.35906   0.29992   0.62535   0.00000  Uiso   1.00
C822   C     0.32230   0.27874   0.62773   0.00000  Uiso   1.00
C823   C     0.42612   0.31393   0.67019   0.00000  Uiso   1.00
C824   C     0.38322   0.29946   0.66926   0.00000  Uiso   1.00
C825   C     0.28011   0.23050   0.67131   0.00000  Uiso   1.00
C826   C     0.31192   0.25888   0.67207   0.00000  Uiso   1.00
C827   C     0.37675   0.27213   0.96261   0.00000  Uiso   1.00
C828   C     0.34171   0.25319   0.96444   0.00000  Uiso   1.00
C829   C     0.35753   0.30050   0.88069   0.00000  Uiso   1.00
C830   C     0.32056   0.28269   0.88639   0.00000  Uiso   1.00
C831   C     0.42737   0.31024   0.92077   0.00000  Uiso   1.00
C832   C     0.38623   0.29607   0.92234   0.00000  Uiso   1.00
C833   C     0.28006   0.22854   0.92145   0.00000  Uiso   1.00
C834   C     0.31204   0.25835   0.92595   0.00000  Uiso   1.00
C835   C     0.46558   0.39529   0.55031   0.00000  Uiso   1.00
C836   C     0.46437   0.39398   0.79916   0.00000  Uiso   1.00
C837   C     0.36174   0.46873   0.30069   0.00000  Uiso   1.00
C838   C     0.31967   0.48188   0.29782   0.00000  Uiso   1.00
C839   C     0.38915   0.46475   0.01013   0.00000  Uiso   1.00
C840   C     0.31502   0.59395   0.42453   0.00000  Uiso   1.00
C841   C     0.37331   0.44609   0.34506   0.00000  Uiso   1.00
C842   C     0.28197   0.56672   0.42174   0.00000  Uiso   1.00
C843   C     0.32055   0.47974   0.05103   0.00000  Uiso   1.00
C844   C     0.36246   0.46369   0.05415   0.00000  Uiso   1.00
C845   C     0.43375   0.42228   0.05157   0.00000  Uiso   1.00
C846   C     0.37473   0.44513   0.09964   0.00000  Uiso   1.00
C847   C     0.40894   0.42433   0.09740   0.00000  Uiso   1.00
C848   C     0.28169   0.56430   0.17505   0.00000  Uiso   1.00
C849   C     0.43267   0.42331   0.29952   0.00000  Uiso   1.00
C850   C     0.38770   0.46608   0.25774   0.00000  Uiso   1.00
C851   C     0.40659   0.42299   0.34348   0.00000  Uiso   1.00
C852   C     0.42478   0.44685   0.25960   0.00000  Uiso   1.00
C853   C     0.31253   0.59410   0.17802   0.00000  Uiso   1.00
C854   C     0.33898   0.59257   0.22106   0.00000  Uiso   1.00
C855   C     0.42344   0.44310   0.00883   0.00000  Uiso   1.00
C856   C     0.34108   0.59107   0.46838   0.00000  Uiso   1.00
C857   C     0.42610   0.44597   0.51049   0.00000  Uiso   1.00
C858   C     0.37344   0.44128   0.84331   0.00000  Uiso   1.00
C859   C     0.34282   0.59761   0.97553   0.00000  Uiso   1.00
C860   C     0.32113   0.47751   0.79956   0.00000  Uiso   1.00
C861   C     0.34650   0.58444   0.71349   0.00000  Uiso   1.00
C862   C     0.31745   0.58992   0.67480   0.00000  Uiso   1.00
C863   C     0.43403   0.42264   0.80202   0.00000  Uiso   1.00
C864   C     0.40859   0.42229   0.84402   0.00000  Uiso   1.00
C865   C     0.36191   0.46274   0.79971   0.00000  Uiso   1.00
C866   C     0.32100   0.47804   0.54759   0.00000  Uiso   1.00
C867   C     0.36113   0.46326   0.54986   0.00000  Uiso   1.00
C868   C     0.43468   0.42281   0.55204   0.00000  Uiso   1.00
C869   C     0.37112   0.44095   0.59553   0.00000  Uiso   1.00
C870   C     0.40956   0.42312   0.59617   0.00000  Uiso   1.00
C871   C     0.28447   0.56293   0.67383   0.00000  Uiso   1.00
C872   C     0.38862   0.46581   0.75707   0.00000  Uiso   1.00
C873   C     0.42650   0.44589   0.75834   0.00000  Uiso   1.00
C874   C     0.28725   0.56324   0.92744   0.00000  Uiso   1.00
C875   C     0.31789   0.59373   0.93005   0.00000  Uiso   1.00
C876   C     0.39005   0.46570   0.50765   0.00000  Uiso   1.00
C877   C     0.37438   0.61259   0.21850   0.00000  Uiso   1.00
C878   C     0.32622   0.61562   0.38174   0.00000  Uiso   1.00
C879   C     0.42614   0.78434   0.01351   0.00000  Uiso   1.00
C880   C     0.37987   0.78530   0.33854   0.00000  Uiso   1.00
C881   C     0.42728   0.64593   0.16927   0.00000  Uiso   1.00
C882   C     0.38600   0.63167   0.17251   0.00000  Uiso   1.00
C883   C     0.36341   0.63440   0.38394   0.00000  Uiso   1.00
C884   C     0.35957   0.63318   0.12870   0.00000  Uiso   1.00
C885   C     0.32301   0.61490   0.13178   0.00000  Uiso   1.00
C886   C     0.46614   0.72812   0.04749   0.00000  Uiso   1.00
C887   C     0.43331   0.75576   0.05075   0.00000  Uiso   1.00
C888   C     0.40627   0.75199   0.09201   0.00000  Uiso   1.00
C889   C     0.43093   0.64308   0.42041   0.00000  Uiso   1.00
C890   C     0.39136   0.62718   0.42321   0.00000  Uiso   1.00
C891   C     0.42888   0.78436   0.25227   0.00000  Uiso   1.00
C892   C     0.36853   0.77062   0.09179   0.00000  Uiso   1.00
C893   C     0.46931   0.73376   0.29350   0.00000  Uiso   1.00
C894   C     0.44083   0.76472   0.29599   0.00000  Uiso   1.00
C895   C     0.37926   0.60773   0.46724   0.00000  Uiso   1.00
C896   C     0.41799   0.76889   0.34197   0.00000  Uiso   1.00
C897   C     0.36035   0.79711   0.05150   0.00000  Uiso   1.00
C898   C     0.36451   0.79997   0.29288   0.00000  Uiso   1.00
C899   C     0.32543   0.61523   0.88445   0.00000  Uiso   1.00
C900   C     0.37528   0.77675   0.84236   0.00000  Uiso   1.00
C901   C     0.36066   0.79700   0.54623   0.00000  Uiso   1.00
C902   C     0.38890   0.79984   0.50471   0.00000  Uiso   1.00
C903   C     0.32413   0.61491   0.63333   0.00000  Uiso   1.00
C904   C     0.43148   0.64536   0.67147   0.00000  Uiso   1.00
C905   C     0.39117   0.62854   0.67201   0.00000  Uiso   1.00
C906   C     0.36204   0.63139   0.87654   0.00000  Uiso   1.00
C907   C     0.36031   0.63348   0.63089   0.00000  Uiso   1.00
C908   C     0.46619   0.72682   0.54572   0.00000  Uiso   1.00
C909   C     0.43636   0.75731   0.54975   0.00000  Uiso   1.00
C910   C     0.37226   0.77552   0.58912   0.00000  Uiso   1.00
C911   C     0.40912   0.75750   0.59263   0.00000  Uiso   1.00
C912   C     0.43052   0.64594   0.91680   0.00000  Uiso   1.00
C913   C     0.39012   0.63066   0.91980   0.00000  Uiso   1.00
C914   C     0.42899   0.78056   0.75707   0.00000  Uiso   1.00
C915   C     0.46871   0.73041   0.79681   0.00000  Uiso   1.00
C916   C     0.43646   0.75882   0.80005   0.00000  Uiso   1.00
C917   C     0.37926   0.61398   0.96705   0.00000  Uiso   1.00
C918   C     0.41164   0.75903   0.84442   0.00000  Uiso   1.00
C919   C     0.38236   0.60245   0.71248   0.00000  Uiso   1.00
C920   C     0.36213   0.79503   0.79558   0.00000  Uiso   1.00
C921   C     0.42612   0.78033   0.50513   0.00000  Uiso   1.00
C922   C     0.32103   0.81177   0.29350   0.00000  Uiso   1.00
C923   C     0.31846   0.81221   0.04762   0.00000  Uiso   1.00
C924   C     0.37477   0.94223   0.21228   0.00000  Uiso   1.00
C925   C     0.33860   0.92496   0.21595   0.00000  Uiso   1.00
C926   C     0.36027   0.96161   0.12461   0.00000  Uiso   1.00
C927   C     0.32512   0.94079   0.12560   0.00000  Uiso   1.00
C928   C     0.42914   0.97339   0.16453   0.00000  Uiso   1.00
C929   C     0.38825   0.95880   0.16627   0.00000  Uiso   1.00
C930   C     0.27978   0.89519   0.17240   0.00000  Uiso   1.00
C931   C     0.31259   0.92168   0.17178   0.00000  Uiso   1.00
C932   C     0.37261   0.95135   0.46609   0.00000  Uiso   1.00
C933   C     0.33621   0.93067   0.46600   0.00000  Uiso   1.00
C934   C     0.36022   0.96682   0.37459   0.00000  Uiso   1.00
C935   C     0.32588   0.94447   0.37557   0.00000  Uiso   1.00
C936   C     0.42869   0.97755   0.41590   0.00000  Uiso   1.00
C937   C     0.38528   0.96713   0.41964   0.00000  Uiso   1.00
C938   C     0.28392   0.89603   0.41916   0.00000  Uiso   1.00
C939   C     0.31456   0.92528   0.42081   0.00000  Uiso   1.00
C940   C     0.39080   0.80358   0.01104   0.00000  Uiso   1.00
C941   C     0.39100   0.80197   0.25104   0.00000  Uiso   1.00
C942   C     0.37630   0.94461   0.71654   0.00000  Uiso   1.00
C943   C     0.34147   0.92422   0.71832   0.00000  Uiso   1.00
C944   C     0.36046   0.96631   0.62799   0.00000  Uiso   1.00
C945   C     0.32427   0.94531   0.63115   0.00000  Uiso   1.00
C946   C     0.42996   0.97517   0.66775   0.00000  Uiso   1.00
C947   C     0.38688   0.96310   0.67036   0.00000  Uiso   1.00
C948   C     0.28491   0.89457   0.67097   0.00000  Uiso   1.00
C949   C     0.31573   0.92383   0.67484   0.00000  Uiso   1.00
C950   C     0.37925   0.93734   0.96126   0.00000  Uiso   1.00
C951   C     0.34290   0.91865   0.96221   0.00000  Uiso   1.00
C952   C     0.35789   0.96756   0.88200   0.00000  Uiso   1.00
C953   C     0.32210   0.94705   0.88421   0.00000  Uiso   1.00
C954   C     0.42780   0.97797   0.92106   0.00000  Uiso   1.00
C955   C     0.38710   0.96229   0.92068   0.00000  Uiso   1.00
C956   C     0.28301   0.89329   0.92025   0.00000  Uiso   1.00
C957   C     0.31388   0.92174   0.92427   0.00000  Uiso   1.00
C958   C     0.31983   0.81087   0.54171   0.00000  Uiso   1.00
C959   C     0.32201   0.80940   0.79423   0.00000  Uiso   1.00
C960   C     0.39222   0.80201   0.75431   0.00000  Uiso   1.00
C961   C     0.67827   0.18623   0.42305   0.00000  Uiso   1.00
C962   C     0.62310   0.06153   0.08701   0.00000  Uiso   1.00
C963   C     0.66120   0.07618   0.09153   0.00000  Uiso   1.00
C964   C     0.57152   0.02346   0.04351   0.00000  Uiso   1.00
C965   C     0.61216   0.03875   0.04377   0.00000  Uiso   1.00
C966   C     0.71816   0.10477   0.04376   0.00000  Uiso   1.00
C967   C     0.68847   0.07427   0.04845   0.00000  Uiso   1.00
C968   C     0.62336   0.06053   0.33411   0.00000  Uiso   1.00
C969   C     0.65978   0.07788   0.33763   0.00000  Uiso   1.00
C970   C     0.63971   0.03096   0.25194   0.00000  Uiso   1.00
C971   C     0.67816   0.04989   0.25472   0.00000  Uiso   1.00
C972   C     0.57095   0.02155   0.29216   0.00000  Uiso   1.00
C973   C     0.61165   0.03826   0.29235   0.00000  Uiso   1.00
C974   C     0.72160   0.10062   0.29243   0.00000  Uiso   1.00
C975   C     0.68750   0.07351   0.29665   0.00000  Uiso   1.00
C976   C     0.67783   0.18518   0.16997   0.00000  Uiso   1.00
C977   C     0.67294   0.05988   0.49922   0.00000  Uiso   1.00
C978   C     0.67984   0.05123   0.00571   0.00000  Uiso   1.00
C979   C     0.64324   0.03082   0.00717   0.00000  Uiso   1.00
C980   C     0.60740   0.19666   0.13179   0.00000  Uiso   1.00
C981   C     0.63819   0.03858   0.49811   0.00000  Uiso   1.00
C982   C     0.63678   0.19971   0.17199   0.00000  Uiso   1.00
C983   C     0.61107   0.19862   0.38181   0.00000  Uiso   1.00
C984   C     0.67939   0.19023   0.66825   0.00000  Uiso   1.00
C985   C     0.62486   0.05621   0.58968   0.00000  Uiso   1.00
C986   C     0.66131   0.07526   0.59229   0.00000  Uiso   1.00
C987   C     0.57063   0.02267   0.54302   0.00000  Uiso   1.00
C988   C     0.61244   0.03855   0.54230   0.00000  Uiso   1.00
C989   C     0.71854   0.10428   0.54774   0.00000  Uiso   1.00
C990   C     0.68458   0.07827   0.54633   0.00000  Uiso   1.00
C991   C     0.62638   0.05251   0.83725   0.00000  Uiso   1.00
C992   C     0.66459   0.06913   0.83719   0.00000  Uiso   1.00
C993   C     0.63983   0.03377   0.74679   0.00000  Uiso   1.00
C994   C     0.67487   0.05413   0.74707   0.00000  Uiso   1.00
C995   C     0.57159   0.02153   0.79024   0.00000  Uiso   1.00
C996   C     0.61400   0.03424   0.79086   0.00000  Uiso   1.00
C997   C     0.71919   0.10103   0.79304   0.00000  Uiso   1.00
C998   C     0.68780   0.07190   0.79414   0.00000  Uiso   1.00
C999   C     0.67889   0.18598   0.91684   0.00000  Uiso   1.00
C1000  C     0.61208   0.19892   0.87274   0.00000  Uiso   1.00
C1001  C     0.60994   0.19787   0.62683   0.00000  Uiso   1.00
C1002  C     0.62574   0.22233   0.46859   0.00000  Uiso   1.00
C1003  C     0.68025   0.38246   0.26283   0.00000  Uiso   1.00
C1004  C     0.63741   0.20085   0.42531   0.00000  Uiso   1.00
C1005  C     0.62635   0.21836   0.21806   0.00000  Uiso   1.00
C1006  C     0.64100   0.36329   0.26034   0.00000  Uiso   1.00
C1007  C     0.57062   0.21680   0.13441   0.00000  Uiso   1.00
C1008  C     0.62102   0.39280   0.34147   0.00000  Uiso   1.00
C1009  C     0.62456   0.38691   0.09183   0.00000  Uiso   1.00
C1010  C     0.53338   0.26901   0.17230   0.00000  Uiso   1.00
C1011  C     0.56613   0.24169   0.17465   0.00000  Uiso   1.00
C1012  C     0.59296   0.24162   0.21826   0.00000  Uiso   1.00
C1013  C     0.57208   0.35451   0.04425   0.00000  Uiso   1.00
C1014  C     0.61186   0.37000   0.04554   0.00000  Uiso   1.00
C1015  C     0.57668   0.22258   0.38033   0.00000  Uiso   1.00
C1016  C     0.53314   0.27256   0.42003   0.00000  Uiso   1.00
C1017  C     0.56590   0.24333   0.42323   0.00000  Uiso   1.00
C1018  C     0.58906   0.24237   0.46821   0.00000  Uiso   1.00
C1019  C     0.57087   0.35335   0.29967   0.00000  Uiso   1.00
C1020  C     0.61283   0.36838   0.30004   0.00000  Uiso   1.00
C1021  C     0.67472   0.38954   0.00464   0.00000  Uiso   1.00
C1022  C     0.63977   0.36671   0.00406   0.00000  Uiso   1.00
C1023  C     0.62531   0.22142   0.96196   0.00000  Uiso   1.00
C1024  C     0.67568   0.38412   0.76325   0.00000  Uiso   1.00
C1025  C     0.63777   0.36769   0.75917   0.00000  Uiso   1.00
C1026  C     0.57211   0.21680   0.62936   0.00000  Uiso   1.00
C1027  C     0.53047   0.26936   0.67210   0.00000  Uiso   1.00
C1028  C     0.56278   0.24038   0.67385   0.00000  Uiso   1.00
C1029  C     0.59068   0.24118   0.71586   0.00000  Uiso   1.00
C1030  C     0.56866   0.35509   0.54611   0.00000  Uiso   1.00
C1031  C     0.61108   0.37097   0.54573   0.00000  Uiso   1.00
C1032  C     0.62874   0.22670   0.71123   0.00000  Uiso   1.00
C1033  C     0.57290   0.21744   0.87661   0.00000  Uiso   1.00
C1034  C     0.53160   0.26771   0.91930   0.00000  Uiso   1.00
C1035  C     0.56232   0.23844   0.92103   0.00000  Uiso   1.00
C1036  C     0.62449   0.38907   0.59345   0.00000  Uiso   1.00
C1037  C     0.58696   0.23760   0.96533   0.00000  Uiso   1.00
C1038  C     0.56904   0.35842   0.79652   0.00000  Uiso   1.00
C1039  C     0.60858   0.37565   0.79895   0.00000  Uiso   1.00
C1040  C     0.63804   0.36998   0.50170   0.00000  Uiso   1.00
C1041  C     0.67493   0.38640   0.50717   0.00000  Uiso   1.00
C1042  C     0.61750   0.39847   0.84106   0.00000  Uiso   1.00
C1043  C     0.63857   0.20509   0.66886   0.00000  Uiso   1.00
C1044  C     0.63797   0.20185   0.91565   0.00000  Uiso   1.00
C1045  C     0.65897   0.41289   0.34259   0.00000  Uiso   1.00
C1046  C     0.60980   0.53903   0.13389   0.00000  Uiso   1.00
C1047  C     0.58667   0.56940   0.46682   0.00000  Uiso   1.00
C1048  C     0.57465   0.55890   0.13474   0.00000  Uiso   1.00
C1049  C     0.68100   0.52903   0.17187   0.00000  Uiso   1.00
C1050  C     0.63806   0.54243   0.17444   0.00000  Uiso   1.00
C1051  C     0.56525   0.57934   0.18013   0.00000  Uiso   1.00
C1052  C     0.62748   0.56268   0.22051   0.00000  Uiso   1.00
C1053  C     0.71935   0.43659   0.29693   0.00000  Uiso   1.00
C1054  C     0.59057   0.58059   0.22297   0.00000  Uiso   1.00
C1055  C     0.71456   0.43910   0.04853   0.00000  Uiso   1.00
C1056  C     0.60899   0.53184   0.37366   0.00000  Uiso   1.00
C1057  C     0.57579   0.55574   0.37439   0.00000  Uiso   1.00
C1058  C     0.67649   0.51751   0.41827   0.00000  Uiso   1.00
C1059  C     0.63425   0.53066   0.41923   0.00000  Uiso   1.00
C1060  C     0.56379   0.57444   0.42103   0.00000  Uiso   1.00
C1061  C     0.62034   0.54775   0.46599   0.00000  Uiso   1.00
C1062  C     0.65850   0.40695   0.09495   0.00000  Uiso   1.00
C1063  C     0.68408   0.41057   0.04851   0.00000  Uiso   1.00
C1064  C     0.68650   0.40926   0.30106   0.00000  Uiso   1.00
C1065  C     0.58814   0.57737   0.97078   0.00000  Uiso   1.00
C1066  C     0.65445   0.41437   0.84366   0.00000  Uiso   1.00
C1067  C     0.62257   0.55601   0.97220   0.00000  Uiso   1.00
C1068  C     0.60822   0.52798   0.62725   0.00000  Uiso   1.00
C1069  C     0.57536   0.55288   0.62841   0.00000  Uiso   1.00
C1070  C     0.66083   0.40742   0.59585   0.00000  Uiso   1.00
C1071  C     0.67584   0.51634   0.67257   0.00000  Uiso   1.00
C1072  C     0.63313   0.52830   0.67223   0.00000  Uiso   1.00
C1073  C     0.56289   0.57089   0.67382   0.00000  Uiso   1.00
C1074  C     0.61852   0.54464   0.71896   0.00000  Uiso   1.00
C1075  C     0.58233   0.56465   0.72065   0.00000  Uiso   1.00
C1076  C     0.71744   0.43581   0.54755   0.00000  Uiso   1.00
C1077  C     0.71624   0.43713   0.79818   0.00000  Uiso   1.00
C1078  C     0.60783   0.53240   0.88528   0.00000  Uiso   1.00
C1079  C     0.57399   0.55517   0.88228   0.00000  Uiso   1.00
C1080  C     0.67663   0.52154   0.92305   0.00000  Uiso   1.00
C1081  C     0.63506   0.53561   0.92656   0.00000  Uiso   1.00
C1082  C     0.56456   0.57837   0.92442   0.00000  Uiso   1.00
C1083  C     0.68276   0.41021   0.80317   0.00000  Uiso   1.00
C1084  C     0.68590   0.40711   0.55134   0.00000  Uiso   1.00
C1085  C     0.64042   0.69837   0.00564   0.00000  Uiso   1.00
C1086  C     0.62342   0.72301   0.09230   0.00000  Uiso   1.00
C1087  C     0.65970   0.74183   0.09528   0.00000  Uiso   1.00
C1088  C     0.56979   0.69111   0.04654   0.00000  Uiso   1.00
C1089  C     0.61161   0.70386   0.04830   0.00000  Uiso   1.00
C1090  C     0.71860   0.77018   0.04863   0.00000  Uiso   1.00
C1091  C     0.68734   0.74015   0.05202   0.00000  Uiso   1.00
C1092  C     0.62474   0.72676   0.33800   0.00000  Uiso   1.00
C1093  C     0.65886   0.74868   0.33792   0.00000  Uiso   1.00
C1094  C     0.64520   0.69748   0.25929   0.00000  Uiso   1.00
C1095  C     0.68124   0.71797   0.25891   0.00000  Uiso   1.00
C1096  C     0.57387   0.68843   0.29506   0.00000  Uiso   1.00
C1097  C     0.61596   0.70210   0.29918   0.00000  Uiso   1.00
C1098  C     0.71943   0.77244   0.29712   0.00000  Uiso   1.00
C1099  C     0.68827   0.74384   0.29924   0.00000  Uiso   1.00
C1100  C     0.67730   0.71790   0.00805   0.00000  Uiso   1.00
C1101  C     0.53394   0.60739   0.17406   0.00000  Uiso   1.00
C1102  C     0.53502   0.60486   0.41817   0.00000  Uiso   1.00
C1103  C     0.62730   0.72076   0.59032   0.00000  Uiso   1.00
C1104  C     0.66651   0.73711   0.59344   0.00000  Uiso   1.00
C1105  C     0.53305   0.60696   0.92138   0.00000  Uiso   1.00
C1106  C     0.57275   0.69286   0.54085   0.00000  Uiso   1.00
C1107  C     0.61357   0.70593   0.54171   0.00000  Uiso   1.00
C1108  C     0.72146   0.77125   0.54654   0.00000  Uiso   1.00
C1109  C     0.69125   0.73967   0.54855   0.00000  Uiso   1.00
C1110  C     0.62405   0.72530   0.84087   0.00000  Uiso   1.00
C1111  C     0.66124   0.74295   0.84512   0.00000  Uiso   1.00
C1112  C     0.64453   0.69977   0.75860   0.00000  Uiso   1.00
C1113  C     0.67543   0.72636   0.75553   0.00000  Uiso   1.00
C1114  C     0.57438   0.68878   0.79598   0.00000  Uiso   1.00
C1115  C     0.61635   0.70295   0.79837   0.00000  Uiso   1.00
C1116  C     0.71918   0.77353   0.79816   0.00000  Uiso   1.00
C1117  C     0.68458   0.74734   0.79957   0.00000  Uiso   1.00
C1118  C     0.53682   0.60460   0.67092   0.00000  Uiso   1.00
C1119  C     0.68021   0.72035   0.50342   0.00000  Uiso   1.00
C1120  C     0.64066   0.70371   0.50070   0.00000  Uiso   1.00
C1121  C     0.60889   0.85792   0.13410   0.00000  Uiso   1.00
C1122  C     0.57354   0.87881   0.13268   0.00000  Uiso   1.00
C1123  C     0.68067   0.85385   0.17455   0.00000  Uiso   1.00
C1124  C     0.63724   0.86340   0.17733   0.00000  Uiso   1.00
C1125  C     0.53626   0.93583   0.16919   0.00000  Uiso   1.00
C1126  C     0.56569   0.90453   0.17381   0.00000  Uiso   1.00
C1127  C     0.62489   0.88449   0.22019   0.00000  Uiso   1.00
C1128  C     0.58939   0.90526   0.21818   0.00000  Uiso   1.00
C1129  C     0.60545   0.85855   0.38354   0.00000  Uiso   1.00
C1130  C     0.57061   0.87904   0.38288   0.00000  Uiso   1.00
C1131  C     0.67692   0.85105   0.42282   0.00000  Uiso   1.00
C1132  C     0.63432   0.86435   0.42322   0.00000  Uiso   1.00
C1133  C     0.53277   0.93676   0.41937   0.00000  Uiso   1.00
C1134  C     0.56377   0.90486   0.42404   0.00000  Uiso   1.00
C1135  C     0.62019   0.88017   0.46871   0.00000  Uiso   1.00
C1136  C     0.58538   0.90113   0.46936   0.00000  Uiso   1.00
C1137  C     0.61191   0.86635   0.62974   0.00000  Uiso   1.00
C1138  C     0.57582   0.88784   0.62700   0.00000  Uiso   1.00
C1139  C     0.68016   0.85657   0.67132   0.00000  Uiso   1.00
C1140  C     0.63906   0.87179   0.67271   0.00000  Uiso   1.00
C1141  C     0.53515   0.93995   0.66564   0.00000  Uiso   1.00
C1142  C     0.56685   0.91247   0.66993   0.00000  Uiso   1.00
C1143  C     0.62654   0.89185   0.71626   0.00000  Uiso   1.00
C1144  C     0.59120   0.91334   0.71482   0.00000  Uiso   1.00
C1145  C     0.61471   0.86858   0.87788   0.00000  Uiso   1.00
C1146  C     0.57732   0.88667   0.87874   0.00000  Uiso   1.00
C1147  C     0.68070   0.85630   0.92121   0.00000  Uiso   1.00
C1148  C     0.64022   0.86883   0.92317   0.00000  Uiso   1.00
C1149  C     0.53516   0.93690   0.91761   0.00000  Uiso   1.00
C1150  C     0.56412   0.90607   0.92291   0.00000  Uiso   1.00
C1151  C     0.62590   0.88687   0.96890   0.00000  Uiso   1.00
C1152  C     0.58938   0.90600   0.96792   0.00000  Uiso   1.00
C1153  C     0.82286   0.14980   0.04238   0.00000  Uiso   1.00
C1154  C     0.86369   0.13446   0.04444   0.00000  Uiso   1.00
C1155  C     0.96897   0.06599   0.04754   0.00000  Uiso   1.00
C1156  C     0.93514   0.09430   0.05077   0.00000  Uiso   1.00
C1157  C     0.87196   0.10973   0.08738   0.00000  Uiso   1.00
C1158  C     0.90805   0.09169   0.09269   0.00000  Uiso   1.00
C1159  C     0.89257   0.13641   0.25384   0.00000  Uiso   1.00
C1160  C     0.92790   0.11280   0.25385   0.00000  Uiso   1.00
C1161  C     0.82533   0.15016   0.29363   0.00000  Uiso   1.00
C1162  C     0.86876   0.13894   0.29834   0.00000  Uiso   1.00
C1163  C     0.96881   0.06230   0.30058   0.00000  Uiso   1.00
C1164  C     0.94045   0.09503   0.30187   0.00000  Uiso   1.00
C1165  C     0.88167   0.12088   0.34532   0.00000  Uiso   1.00
C1166  C     0.91953   0.10386   0.34819   0.00000  Uiso   1.00
C1167  C     0.92874   0.11702   0.00788   0.00000  Uiso   1.00
C1168  C     0.89444   0.13971   0.00613   0.00000  Uiso   1.00
C1169  C     0.82451   0.14405   0.54660   0.00000  Uiso   1.00
C1170  C     0.86587   0.13064   0.54708   0.00000  Uiso   1.00
C1171  C     0.97179   0.06380   0.54465   0.00000  Uiso   1.00
C1172  C     0.93992   0.09338   0.54668   0.00000  Uiso   1.00
C1173  C     0.87909   0.11277   0.59074   0.00000  Uiso   1.00
C1174  C     0.91552   0.09374   0.59168   0.00000  Uiso   1.00
C1175  C     0.89163   0.13691   0.75481   0.00000  Uiso   1.00
C1176  C     0.92886   0.11857   0.75629   0.00000  Uiso   1.00
C1177  C     0.82284   0.14587   0.79541   0.00000  Uiso   1.00
C1178  C     0.86611   0.13480   0.79885   0.00000  Uiso   1.00
C1179  C     0.97195   0.06698   0.79445   0.00000  Uiso   1.00
C1180  C     0.94147   0.09716   0.80039   0.00000  Uiso   1.00
C1181  C     0.88046   0.11640   0.84508   0.00000  Uiso   1.00
C1182  C     0.91843   0.09942   0.84654   0.00000  Uiso   1.00
C1183  C     0.92812   0.11457   0.50374   0.00000  Uiso   1.00
C1184  C     0.89145   0.13347   0.50207   0.00000  Uiso   1.00
C1185  C     0.87910   0.27095   0.21178   0.00000  Uiso   1.00
C1186  C     0.84319   0.25148   0.21240   0.00000  Uiso   1.00
C1187  C     0.85728   0.30567   0.13451   0.00000  Uiso   1.00
C1188  C     0.82009   0.28446   0.13452   0.00000  Uiso   1.00
C1189  C     0.92666   0.31539   0.17224   0.00000  Uiso   1.00
C1190  C     0.88669   0.29879   0.17392   0.00000  Uiso   1.00
C1191  C     0.78080   0.23052   0.17032   0.00000  Uiso   1.00
C1192  C     0.81357   0.25779   0.17503   0.00000  Uiso   1.00
C1193  C     0.87488   0.27853   0.46645   0.00000  Uiso   1.00
C1194  C     0.83554   0.26343   0.46974   0.00000  Uiso   1.00
C1195  C     0.86091   0.29631   0.37616   0.00000  Uiso   1.00
C1196  C     0.82433   0.27806   0.37826   0.00000  Uiso   1.00
C1197  C     0.92950   0.30972   0.42305   0.00000  Uiso   1.00
C1198  C     0.88880   0.29488   0.42057   0.00000  Uiso   1.00
C1199  C     0.78460   0.22714   0.42204   0.00000  Uiso   1.00
C1200  C     0.81245   0.25886   0.42514   0.00000  Uiso   1.00
C1201  C     0.96707   0.39768   0.29700   0.00000  Uiso   1.00
C1202  C     0.87690   0.27418   0.71731   0.00000  Uiso   1.00
C1203  C     0.84031   0.25547   0.71972   0.00000  Uiso   1.00
C1204  C     0.85571   0.30257   0.63184   0.00000  Uiso   1.00
C1205  C     0.81985   0.28244   0.63539   0.00000  Uiso   1.00
C1206  C     0.92758   0.31058   0.67069   0.00000  Uiso   1.00
C1207  C     0.88650   0.29547   0.67290   0.00000  Uiso   1.00
C1208  C     0.78330   0.22748   0.67069   0.00000  Uiso   1.00
C1209  C     0.81376   0.25675   0.67439   0.00000  Uiso   1.00
C1210  C     0.86964   0.28311   0.96648   0.00000  Uiso   1.00
C1211  C     0.83268   0.26563   0.96730   0.00000  Uiso   1.00
C1212  C     0.85884   0.30097   0.87694   0.00000  Uiso   1.00
C1213  C     0.82392   0.27920   0.87808   0.00000  Uiso   1.00
C1214  C     0.92560   0.31491   0.92208   0.00000  Uiso   1.00
C1215  C     0.88402   0.29976   0.92098   0.00000  Uiso   1.00
C1216  C     0.78066   0.22935   0.91859   0.00000  Uiso   1.00
C1217  C     0.81104   0.26036   0.92238   0.00000  Uiso   1.00
C1218  C     0.96572   0.39704   0.79543   0.00000  Uiso   1.00
C1219  C     0.95985   0.39318   0.54844   0.00000  Uiso   1.00
C1220  C     0.84003   0.59449   0.22144   0.00000  Uiso   1.00
C1221  C     0.83954   0.58969   0.46870   0.00000  Uiso   1.00
C1222  C     0.93618   0.42606   0.30280   0.00000  Uiso   1.00
C1223  C     0.82135   0.47879   0.29860   0.00000  Uiso   1.00
C1224  C     0.86317   0.46438   0.30081   0.00000  Uiso   1.00
C1225  C     0.90627   0.41771   0.33911   0.00000  Uiso   1.00
C1226  C     0.81557   0.59221   0.17618   0.00000  Uiso   1.00
C1227  C     0.82426   0.48151   0.04888   0.00000  Uiso   1.00
C1228  C     0.86481   0.46579   0.05028   0.00000  Uiso   1.00
C1229  C     0.93733   0.42933   0.05262   0.00000  Uiso   1.00
C1230  C     0.87902   0.44968   0.09675   0.00000  Uiso   1.00
C1231  C     0.86984   0.43584   0.33885   0.00000  Uiso   1.00
C1232  C     0.91419   0.42987   0.09564   0.00000  Uiso   1.00
C1233  C     0.78500   0.56171   0.17324   0.00000  Uiso   1.00
C1234  C     0.89494   0.47331   0.26502   0.00000  Uiso   1.00
C1235  C     0.78014   0.56222   0.42425   0.00000  Uiso   1.00
C1236  C     0.93174   0.45491   0.26539   0.00000  Uiso   1.00
C1237  C     0.81211   0.59098   0.42595   0.00000  Uiso   1.00
C1238  C     0.92932   0.45348   0.01055   0.00000  Uiso   1.00
C1239  C     0.89366   0.47370   0.01011   0.00000  Uiso   1.00
C1240  C     0.96755   0.40010   0.04754   0.00000  Uiso   1.00
C1241  C     0.92259   0.44593   0.50598   0.00000  Uiso   1.00
C1242  C     0.83079   0.59916   0.96850   0.00000  Uiso   1.00
C1243  C     0.93139   0.42429   0.79919   0.00000  Uiso   1.00
C1244  C     0.90870   0.42680   0.84487   0.00000  Uiso   1.00
C1245  C     0.84058   0.58225   0.71683   0.00000  Uiso   1.00
C1246  C     0.85990   0.46405   0.79751   0.00000  Uiso   1.00
C1247  C     0.82135   0.48121   0.54732   0.00000  Uiso   1.00
C1248  C     0.86290   0.46799   0.55154   0.00000  Uiso   1.00
C1249  C     0.93153   0.42446   0.55130   0.00000  Uiso   1.00
C1250  C     0.87267   0.44765   0.59557   0.00000  Uiso   1.00
C1251  C     0.81829   0.47705   0.79835   0.00000  Uiso   1.00
C1252  C     0.90661   0.42607   0.59423   0.00000  Uiso   1.00
C1253  C     0.77762   0.56398   0.67277   0.00000  Uiso   1.00
C1254  C     0.87115   0.44284   0.84200   0.00000  Uiso   1.00
C1255  C     0.88816   0.46860   0.75567   0.00000  Uiso   1.00
C1256  C     0.77898   0.56651   0.92191   0.00000  Uiso   1.00
C1257  C     0.92306   0.44628   0.75484   0.00000  Uiso   1.00
C1258  C     0.80695   0.59695   0.92173   0.00000  Uiso   1.00
C1259  C     0.89070   0.46992   0.50881   0.00000  Uiso   1.00
C1260  C     0.81147   0.58916   0.67803   0.00000  Uiso   1.00
C1261  C     0.87745   0.59897   0.71222   0.00000  Uiso   1.00
C1262  C     0.82178   0.61402   0.38236   0.00000  Uiso   1.00
C1263  C     0.92960   0.78279   0.26060   0.00000  Uiso   1.00
C1264  C     0.92817   0.64764   0.17418   0.00000  Uiso   1.00
C1265  C     0.88577   0.63673   0.17571   0.00000  Uiso   1.00
C1266  C     0.85929   0.63415   0.38242   0.00000  Uiso   1.00
C1267  C     0.86080   0.63678   0.13279   0.00000  Uiso   1.00
C1268  C     0.87421   0.61745   0.21871   0.00000  Uiso   1.00
C1269  C     0.96682   0.72916   0.04733   0.00000  Uiso   1.00
C1270  C     0.93969   0.76031   0.04992   0.00000  Uiso   1.00
C1271  C     0.87557   0.61018   0.46809   0.00000  Uiso   1.00
C1272  C     0.91749   0.76968   0.09594   0.00000  Uiso   1.00
C1273  C     0.92940   0.64430   0.42095   0.00000  Uiso   1.00
C1274  C     0.88876   0.62764   0.42327   0.00000  Uiso   1.00
C1275  C     0.88021   0.78715   0.09332   0.00000  Uiso   1.00
C1276  C     0.82589   0.61314   0.13266   0.00000  Uiso   1.00
C1277  C     0.87160   0.77269   0.34108   0.00000  Uiso   1.00
C1278  C     0.96804   0.72842   0.29685   0.00000  Uiso   1.00
C1279  C     0.93518   0.75642   0.29972   0.00000  Uiso   1.00
C1280  C     0.90649   0.75191   0.34066   0.00000  Uiso   1.00
C1281  C     0.92736   0.77744   0.00356   0.00000  Uiso   1.00
C1282  C     0.89125   0.79699   0.00098   0.00000  Uiso   1.00
C1283  C     0.86558   0.79717   0.54666   0.00000  Uiso   1.00
C1284  C     0.87736   0.77938   0.59107   0.00000  Uiso   1.00
C1285  C     0.86980   0.76921   0.83685   0.00000  Uiso   1.00
C1286  C     0.92694   0.63969   0.67161   0.00000  Uiso   1.00
C1287  C     0.88618   0.62320   0.67191   0.00000  Uiso   1.00
C1288  C     0.85621   0.63773   0.87951   0.00000  Uiso   1.00
C1289  C     0.85819   0.63150   0.63421   0.00000  Uiso   1.00
C1290  C     0.96593   0.72765   0.54791   0.00000  Uiso   1.00
C1291  C     0.94075   0.76024   0.55106   0.00000  Uiso   1.00
C1292  C     0.93001   0.78415   0.50793   0.00000  Uiso   1.00
C1293  C     0.91489   0.76040   0.59422   0.00000  Uiso   1.00
C1294  C     0.92688   0.64143   0.92178   0.00000  Uiso   1.00
C1295  C     0.88344   0.62989   0.92084   0.00000  Uiso   1.00
C1296  C     0.92646   0.77495   0.75842   0.00000  Uiso   1.00
C1297  C     0.86898   0.61464   0.96767   0.00000  Uiso   1.00
C1298  C     0.96339   0.72203   0.79555   0.00000  Uiso   1.00
C1299  C     0.93207   0.74907   0.79782   0.00000  Uiso   1.00
C1300  C     0.89254   0.79847   0.75955   0.00000  Uiso   1.00
C1301  C     0.90377   0.74770   0.83890   0.00000  Uiso   1.00
C1302  C     0.81930   0.61606   0.63989   0.00000  Uiso   1.00
C1303  C     0.81882   0.61831   0.87948   0.00000  Uiso   1.00
C1304  C     0.86251   0.79246   0.79681   0.00000  Uiso   1.00
C1305  C     0.82420   0.81363   0.29817   0.00000  Uiso   1.00
C1306  C     0.86455   0.96008   0.21468   0.00000  Uiso   1.00
C1307  C     0.82937   0.93930   0.21646   0.00000  Uiso   1.00
C1308  C     0.85661   0.97211   0.12327   0.00000  Uiso   1.00
C1309  C     0.81833   0.95221   0.12481   0.00000  Uiso   1.00
C1310  C     0.92566   0.98330   0.16928   0.00000  Uiso   1.00
C1311  C     0.88185   0.97279   0.16811   0.00000  Uiso   1.00
C1312  C     0.78087   0.90017   0.17251   0.00000  Uiso   1.00
C1313  C     0.80732   0.93196   0.16969   0.00000  Uiso   1.00
C1314  C     0.87152   0.94612   0.47164   0.00000  Uiso   1.00
C1315  C     0.83413   0.93101   0.47428   0.00000  Uiso   1.00
C1316  C     0.85725   0.97013   0.38569   0.00000  Uiso   1.00
C1317  C     0.82020   0.95086   0.38521   0.00000  Uiso   1.00
C1318  C     0.92631   0.97825   0.42652   0.00000  Uiso   1.00
C1319  C     0.88332   0.96640   0.42950   0.00000  Uiso   1.00
C1320  C     0.78293   0.89857   0.42500   0.00000  Uiso   1.00
C1321  C     0.80945   0.93008   0.43052   0.00000  Uiso   1.00
C1322  C     0.86599   0.80181   0.04589   0.00000  Uiso   1.00
C1323  C     0.82432   0.81626   0.04567   0.00000  Uiso   1.00
C1324  C     0.89549   0.80622   0.26209   0.00000  Uiso   1.00
C1325  C     0.86627   0.80009   0.30061   0.00000  Uiso   1.00
C1326  C     0.82371   0.81289   0.54571   0.00000  Uiso   1.00
C1327  C     0.87541   0.94802   0.72147   0.00000  Uiso   1.00
C1328  C     0.84055   0.92787   0.71892   0.00000  Uiso   1.00
C1329  C     0.86125   0.96760   0.63159   0.00000  Uiso   1.00
C1330  C     0.82709   0.94793   0.63299   0.00000  Uiso   1.00
C1331  C     0.93127   0.98028   0.67138   0.00000  Uiso   1.00
C1332  C     0.88874   0.96622   0.67597   0.00000  Uiso   1.00
C1333  C     0.78705   0.89562   0.67309   0.00000  Uiso   1.00
C1334  C     0.81590   0.92584   0.67644   0.00000  Uiso   1.00
C1335  C     0.88162   0.93906   0.96275   0.00000  Uiso   1.00
C1336  C     0.84506   0.92081   0.96590   0.00000  Uiso   1.00
C1337  C     0.85916   0.97230   0.88594   0.00000  Uiso   1.00
C1338  C     0.82384   0.95103   0.88594   0.00000  Uiso   1.00
C1339  C     0.92980   0.98167   0.92151   0.00000  Uiso   1.00
C1340  C     0.88981   0.96342   0.92269   0.00000  Uiso   1.00
C1341  C     0.78240   0.89829   0.92337   0.00000  Uiso   1.00
C1342  C     0.81521   0.92618   0.92614   0.00000  Uiso   1.00
C1343  C     0.82478   0.81399   0.79673   0.00000  Uiso   1.00
C1344  C     0.89295   0.80064   0.50544   0.00000  Uiso   1.00
O1345  O     0.19470   0.17884   0.46523   0.00000  Uiso   1.00
O1346  O     0.22365   0.11890   0.25050   0.00000  Uiso   1.00
O1347  O     0.05321   0.01453   0.25156   0.00000  Uiso   1.00
O1348  O     0.05360   0.01055   0.34385   0.00000  Uiso   1.00
O1349  O     0.22586   0.11854   0.09370   0.00000  Uiso   1.00
O1350  O     0.19447   0.18474   0.12552   0.00000  Uiso   1.00
O1351  O     0.05250   0.01805   0.09295   0.00000  Uiso   1.00
O1352  O     0.19329   0.18295   0.21678   0.00000  Uiso   1.00
O1353  O     0.22315   0.12182   0.34119   0.00000  Uiso   1.00
O1354  O     0.19716   0.18679   0.37341   0.00000  Uiso   1.00
O1355  O     0.22448   0.11754   0.00019   0.00000  Uiso   1.00
O1356  O     0.22599   0.11745   0.49949   0.00000  Uiso   1.00
O1357  O     0.05658   0.01448   0.49747   0.00000  Uiso   1.00
O1358  O     0.19630   0.18302   0.96979   0.00000  Uiso   1.00
O1359  O     0.19550   0.17762   0.62668   0.00000  Uiso   1.00
O1360  O     0.05377   0.01803   0.84175   0.00000  Uiso   1.00
O1361  O     0.22850   0.11588   0.75398   0.00000  Uiso   1.00
O1362  O     0.05842   0.01238   0.58917   0.00000  Uiso   1.00
O1363  O     0.23013   0.11582   0.59108   0.00000  Uiso   1.00
O1364  O     0.05706   0.01998   0.75067   0.00000  Uiso   1.00
O1365  O     0.19724   0.18145   0.71761   0.00000  Uiso   1.00
O1366  O     0.22813   0.11841   0.84622   0.00000  Uiso   1.00
O1367  O     0.19746   0.18629   0.87838   0.00000  Uiso   1.00
O1368  O     0.05591   0.01496   0.99961   0.00000  Uiso   1.00
O1369  O     0.05488   0.35229   0.25120   0.00000  Uiso   1.00
O1370  O     0.01977   0.28385   0.37478   0.00000  Uiso   1.00
O1371  O     0.02132   0.28782   0.21500   0.00000  Uiso   1.00
O1372  O     0.05163   0.34906   0.34334   0.00000  Uiso   1.00
O1373  O     0.02045   0.28562   0.12313   0.00000  Uiso   1.00
O1374  O     0.05495   0.34805   0.09280   0.00000  Uiso   1.00
O1375  O     0.02654   0.28846   0.46715   0.00000  Uiso   1.00
O1376  O     0.05376   0.35483   0.00079   0.00000  Uiso   1.00
O1377  O     0.05084   0.35614   0.49940   0.00000  Uiso   1.00
O1378  O     0.05279   0.35272   0.75044   0.00000  Uiso   1.00
O1379  O     0.02136   0.28657   0.87530   0.00000  Uiso   1.00
O1380  O     0.05279   0.35093   0.84114   0.00000  Uiso   1.00
O1381  O     0.02918   0.28857   0.62558   0.00000  Uiso   1.00
O1382  O     0.02555   0.28830   0.71795   0.00000  Uiso   1.00
O1383  O     0.02291   0.28875   0.96704   0.00000  Uiso   1.00
O1384  O     0.04991   0.35535   0.59330   0.00000  Uiso   1.00
O1385  O     0.19770   0.51956   0.46979   0.00000  Uiso   1.00
O1386  O     0.19759   0.51666   0.12700   0.00000  Uiso   1.00
O1387  O     0.22486   0.45063   0.25107   0.00000  Uiso   1.00
O1388  O     0.19565   0.51709   0.21935   0.00000  Uiso   1.00
O1389  O     0.19493   0.52143   0.37960   0.00000  Uiso   1.00
O1390  O     0.22232   0.45488   0.34387   0.00000  Uiso   1.00
O1391  O     0.22853   0.45473   0.09486   0.00000  Uiso   1.00
O1392  O     0.22484   0.45597   0.00326   0.00000  Uiso   1.00
O1393  O     0.20285   0.52142   0.97114   0.00000  Uiso   1.00
O1394  O     0.19884   0.52127   0.87861   0.00000  Uiso   1.00
O1395  O     0.22376   0.45595   0.75513   0.00000  Uiso   1.00
O1396  O     0.19619   0.51872   0.71842   0.00000  Uiso   1.00
O1397  O     0.22369   0.45712   0.84568   0.00000  Uiso   1.00
O1398  O     0.22336   0.45549   0.59505   0.00000  Uiso   1.00
O1399  O     0.19742   0.52218   0.62507   0.00000  Uiso   1.00
O1400  O     0.22708   0.45414   0.50229   0.00000  Uiso   1.00
O1401  O     0.05415   0.68308   0.24920   0.00000  Uiso   1.00
O1402  O     0.02627   0.61631   0.37852   0.00000  Uiso   1.00
O1403  O     0.22280   0.78334   0.25111   0.00000  Uiso   1.00
O1404  O     0.01763   0.61784   0.47261   0.00000  Uiso   1.00
O1405  O     0.22608   0.78570   0.09049   0.00000  Uiso   1.00
O1406  O     0.05615   0.67932   0.34209   0.00000  Uiso   1.00
O1407  O     0.22953   0.78362   0.34256   0.00000  Uiso   1.00
O1408  O     0.02227   0.61750   0.12643   0.00000  Uiso   1.00
O1409  O     0.02088   0.61702   0.21787   0.00000  Uiso   1.00
O1410  O     0.05244   0.67937   0.09324   0.00000  Uiso   1.00
O1411  O     0.22555   0.78400   0.49819   0.00000  Uiso   1.00
O1412  O     0.05203   0.68393   0.00294   0.00000  Uiso   1.00
O1413  O     0.05408   0.67686   0.74885   0.00000  Uiso   1.00
O1414  O     0.02565   0.61265   0.87863   0.00000  Uiso   1.00
O1415  O     0.22215   0.78297   0.74932   0.00000  Uiso   1.00
O1416  O     0.22294   0.78502   0.99896   0.00000  Uiso   1.00
O1417  O     0.22851   0.78150   0.83938   0.00000  Uiso   1.00
O1418  O     0.05307   0.67761   0.84439   0.00000  Uiso   1.00
O1419  O     0.02477   0.61887   0.97005   0.00000  Uiso   1.00
O1420  O     0.01989   0.61252   0.62512   0.00000  Uiso   1.00
O1421  O     0.01767   0.61408   0.71579   0.00000  Uiso   1.00
O1422  O     0.22164   0.78905   0.59194   0.00000  Uiso   1.00
O1423  O     0.05228   0.67785   0.59537   0.00000  Uiso   1.00
O1424  O     0.05491   0.68088   0.50342   0.00000  Uiso   1.00
O1425  O     0.19752   0.84963   0.46399   0.00000  Uiso   1.00
O1426  O     0.02169   0.95212   0.12439   0.00000  Uiso   1.00
O1427  O     0.19357   0.85267   0.12577   0.00000  Uiso   1.00
O1428  O     0.02249   0.95335   0.21597   0.00000  Uiso   1.00
O1429  O     0.19493   0.84866   0.21656   0.00000  Uiso   1.00
O1430  O     0.01900   0.94660   0.37774   0.00000  Uiso   1.00
O1431  O     0.19530   0.84723   0.37403   0.00000  Uiso   1.00
O1432  O     0.02292   0.94895   0.46875   0.00000  Uiso   1.00
O1433  O     0.02304   0.95313   0.96552   0.00000  Uiso   1.00
O1434  O     0.19532   0.84999   0.96528   0.00000  Uiso   1.00
O1435  O     0.02486   0.95183   0.62717   0.00000  Uiso   1.00
O1436  O     0.19636   0.85589   0.62140   0.00000  Uiso   1.00
O1437  O     0.02642   0.95571   0.71956   0.00000  Uiso   1.00
O1438  O     0.19449   0.84897   0.71310   0.00000  Uiso   1.00
O1439  O     0.02490   0.95306   0.87333   0.00000  Uiso   1.00
O1440  O     0.19455   0.84791   0.87313   0.00000  Uiso   1.00
O1441  O     0.47047   0.04528   0.24528   0.00000  Uiso   1.00
O1442  O     0.30191   0.14519   0.09425   0.00000  Uiso   1.00
O1443  O     0.30141   0.14652   0.34008   0.00000  Uiso   1.00
O1444  O     0.47618   0.05026   0.49656   0.00000  Uiso   1.00
O1445  O     0.47943   0.04759   0.33608   0.00000  Uiso   1.00
O1446  O     0.30102   0.14855   0.24842   0.00000  Uiso   1.00
O1447  O     0.47776   0.04456   0.08613   0.00000  Uiso   1.00
O1448  O     0.30122   0.14858   0.00203   0.00000  Uiso   1.00
O1449  O     0.30181   0.15210   0.49976   0.00000  Uiso   1.00
O1450  O     0.30275   0.15292   0.59200   0.00000  Uiso   1.00
O1451  O     0.47167   0.04540   0.58867   0.00000  Uiso   1.00
O1452  O     0.30667   0.15189   0.84449   0.00000  Uiso   1.00
O1453  O     0.48035   0.04808   0.84052   0.00000  Uiso   1.00
O1454  O     0.30541   0.15040   0.75380   0.00000  Uiso   1.00
O1455  O     0.47576   0.04703   0.74763   0.00000  Uiso   1.00
O1456  O     0.47530   0.04567   0.99478   0.00000  Uiso   1.00
O1457  O     0.47236   0.37938   0.34208   0.00000  Uiso   1.00
O1458  O     0.47723   0.38194   0.24989   0.00000  Uiso   1.00
O1459  O     0.27692   0.21253   0.37650   0.00000  Uiso   1.00
O1460  O     0.27091   0.21355   0.21813   0.00000  Uiso   1.00
O1461  O     0.44528   0.31772   0.21611   0.00000  Uiso   1.00
O1462  O     0.27537   0.21242   0.12481   0.00000  Uiso   1.00
O1463  O     0.45020   0.31120   0.12510   0.00000  Uiso   1.00
O1464  O     0.44354   0.31457   0.37543   0.00000  Uiso   1.00
O1465  O     0.47594   0.37687   0.09173   0.00000  Uiso   1.00
O1466  O     0.26784   0.21411   0.46528   0.00000  Uiso   1.00
O1467  O     0.44309   0.31717   0.46776   0.00000  Uiso   1.00
O1468  O     0.47593   0.38109   0.00116   0.00000  Uiso   1.00
O1469  O     0.27160   0.21540   0.87483   0.00000  Uiso   1.00
O1470  O     0.47211   0.38054   0.75178   0.00000  Uiso   1.00
O1471  O     0.44558   0.31151   0.87426   0.00000  Uiso   1.00
O1472  O     0.27336   0.21307   0.71744   0.00000  Uiso   1.00
O1473  O     0.44459   0.31638   0.71580   0.00000  Uiso   1.00
O1474  O     0.26949   0.21497   0.62456   0.00000  Uiso   1.00
O1475  O     0.44400   0.31662   0.62348   0.00000  Uiso   1.00
O1476  O     0.47676   0.37883   0.84389   0.00000  Uiso   1.00
O1477  O     0.47855   0.38146   0.59410   0.00000  Uiso   1.00
O1478  O     0.27311   0.21096   0.96746   0.00000  Uiso   1.00
O1479  O     0.44546   0.31526   0.96690   0.00000  Uiso   1.00
O1480  O     0.47472   0.37959   0.50401   0.00000  Uiso   1.00
O1481  O     0.26971   0.55055   0.22224   0.00000  Uiso   1.00
O1482  O     0.30298   0.48684   0.34327   0.00000  Uiso   1.00
O1483  O     0.27251   0.55014   0.12869   0.00000  Uiso   1.00
O1484  O     0.30391   0.48569   0.09774   0.00000  Uiso   1.00
O1485  O     0.27258   0.55158   0.46774   0.00000  Uiso   1.00
O1486  O     0.27322   0.55094   0.37501   0.00000  Uiso   1.00
O1487  O     0.30033   0.48326   0.25164   0.00000  Uiso   1.00
O1488  O     0.30278   0.47932   0.00580   0.00000  Uiso   1.00
O1489  O     0.27357   0.54916   0.71999   0.00000  Uiso   1.00
O1490  O     0.30417   0.48487   0.84459   0.00000  Uiso   1.00
O1491  O     0.30254   0.48038   0.59326   0.00000  Uiso   1.00
O1492  O     0.27956   0.54501   0.97208   0.00000  Uiso   1.00
O1493  O     0.30301   0.48318   0.75355   0.00000  Uiso   1.00
O1494  O     0.27546   0.55153   0.88046   0.00000  Uiso   1.00
O1495  O     0.27557   0.54685   0.62852   0.00000  Uiso   1.00
O1496  O     0.30389   0.48394   0.50212   0.00000  Uiso   1.00
O1497  O     0.47768   0.71823   0.33953   0.00000  Uiso   1.00
O1498  O     0.47844   0.71910   0.24691   0.00000  Uiso   1.00
O1499  O     0.45055   0.64656   0.46685   0.00000  Uiso   1.00
O1500  O     0.47352   0.71170   0.09375   0.00000  Uiso   1.00
O1501  O     0.44701   0.65158   0.37381   0.00000  Uiso   1.00
O1502  O     0.44277   0.65664   0.21616   0.00000  Uiso   1.00
O1503  O     0.44646   0.64600   0.12522   0.00000  Uiso   1.00
O1504  O     0.47596   0.71519   0.49802   0.00000  Uiso   1.00
O1505  O     0.47650   0.71654   0.00090   0.00000  Uiso   1.00
O1506  O     0.48125   0.71589   0.84136   0.00000  Uiso   1.00
O1507  O     0.47669   0.71572   0.74784   0.00000  Uiso   1.00
O1508  O     0.44885   0.65060   0.96325   0.00000  Uiso   1.00
O1509  O     0.44750   0.65241   0.87119   0.00000  Uiso   1.00
O1510  O     0.44827   0.65374   0.71778   0.00000  Uiso   1.00
O1511  O     0.44941   0.64793   0.62677   0.00000  Uiso   1.00
O1512  O     0.47724   0.71202   0.59072   0.00000  Uiso   1.00
O1513  O     0.30441   0.81809   0.33956   0.00000  Uiso   1.00
O1514  O     0.44689   0.98346   0.46243   0.00000  Uiso   1.00
O1515  O     0.44675   0.98115   0.36758   0.00000  Uiso   1.00
O1516  O     0.27078   0.88085   0.21941   0.00000  Uiso   1.00
O1517  O     0.27170   0.88222   0.37325   0.00000  Uiso   1.00
O1518  O     0.44773   0.97903   0.21113   0.00000  Uiso   1.00
O1519  O     0.27109   0.88195   0.12591   0.00000  Uiso   1.00
O1520  O     0.44855   0.97887   0.11948   0.00000  Uiso   1.00
O1521  O     0.30089   0.81745   0.09295   0.00000  Uiso   1.00
O1522  O     0.27397   0.88058   0.46425   0.00000  Uiso   1.00
O1523  O     0.30117   0.81412   0.24835   0.00000  Uiso   1.00
O1524  O     0.30404   0.81616   0.49681   0.00000  Uiso   1.00
O1525  O     0.30101   0.81409   0.00073   0.00000  Uiso   1.00
O1526  O     0.30417   0.81409   0.84048   0.00000  Uiso   1.00
O1527  O     0.44502   0.98358   0.87362   0.00000  Uiso   1.00
O1528  O     0.27091   0.87971   0.87394   0.00000  Uiso   1.00
O1529  O     0.27530   0.87957   0.71512   0.00000  Uiso   1.00
O1530  O     0.44714   0.98293   0.71405   0.00000  Uiso   1.00
O1531  O     0.27559   0.88149   0.62433   0.00000  Uiso   1.00
O1532  O     0.44837   0.97682   0.62270   0.00000  Uiso   1.00
O1533  O     0.30142   0.81663   0.58741   0.00000  Uiso   1.00
O1534  O     0.27131   0.88100   0.96750   0.00000  Uiso   1.00
O1535  O     0.30324   0.81449   0.74812   0.00000  Uiso   1.00
O1536  O     0.44756   0.97897   0.96600   0.00000  Uiso   1.00
O1537  O     0.55423   0.01725   0.49773   0.00000  Uiso   1.00
O1538  O     0.69943   0.18248   0.46859   0.00000  Uiso   1.00
O1539  O     0.55337   0.01996   0.24584   0.00000  Uiso   1.00
O1540  O     0.72577   0.11712   0.24599   0.00000  Uiso   1.00
O1541  O     0.73031   0.12003   0.08823   0.00000  Uiso   1.00
O1542  O     0.69423   0.18244   0.12325   0.00000  Uiso   1.00
O1543  O     0.55585   0.01350   0.08950   0.00000  Uiso   1.00
O1544  O     0.55311   0.01650   0.33654   0.00000  Uiso   1.00
O1545  O     0.69630   0.18267   0.21534   0.00000  Uiso   1.00
O1546  O     0.73473   0.11374   0.33766   0.00000  Uiso   1.00
O1547  O     0.69534   0.17873   0.37608   0.00000  Uiso   1.00
O1548  O     0.69718   0.18422   0.96289   0.00000  Uiso   1.00
O1549  O     0.72431   0.11693   0.74772   0.00000  Uiso   1.00
O1550  O     0.72592   0.11950   0.99662   0.00000  Uiso   1.00
O1551  O     0.72734   0.11856   0.50011   0.00000  Uiso   1.00
O1552  O     0.72797   0.11875   0.59138   0.00000  Uiso   1.00
O1553  O     0.69671   0.18645   0.62134   0.00000  Uiso   1.00
O1554  O     0.55074   0.02080   0.58732   0.00000  Uiso   1.00
O1555  O     0.55350   0.01726   0.74397   0.00000  Uiso   1.00
O1556  O     0.69641   0.18194   0.71435   0.00000  Uiso   1.00
O1557  O     0.73015   0.11610   0.83803   0.00000  Uiso   1.00
O1558  O     0.69557   0.17761   0.87164   0.00000  Uiso   1.00
O1559  O     0.55257   0.01663   0.83652   0.00000  Uiso   1.00
O1560  O     0.55359   0.01949   0.99818   0.00000  Uiso   1.00
O1561  O     0.55358   0.34821   0.25321   0.00000  Uiso   1.00
O1562  O     0.52325   0.28620   0.37487   0.00000  Uiso   1.00
O1563  O     0.55252   0.35094   0.09027   0.00000  Uiso   1.00
O1564  O     0.52274   0.28627   0.21660   0.00000  Uiso   1.00
O1565  O     0.55009   0.35256   0.34399   0.00000  Uiso   1.00
O1566  O     0.52768   0.28432   0.12555   0.00000  Uiso   1.00
O1567  O     0.51849   0.28484   0.46424   0.00000  Uiso   1.00
O1568  O     0.55122   0.35231   0.75034   0.00000  Uiso   1.00
O1569  O     0.52504   0.28290   0.87267   0.00000  Uiso   1.00
O1570  O     0.55458   0.34795   0.99874   0.00000  Uiso   1.00
O1571  O     0.55208   0.35026   0.84158   0.00000  Uiso   1.00
O1572  O     0.52129   0.28255   0.96453   0.00000  Uiso   1.00
O1573  O     0.52300   0.28649   0.71724   0.00000  Uiso   1.00
O1574  O     0.55163   0.34945   0.59221   0.00000  Uiso   1.00
O1575  O     0.52402   0.28469   0.62639   0.00000  Uiso   1.00
O1576  O     0.55260   0.34610   0.50028   0.00000  Uiso   1.00
O1577  O     0.69490   0.51351   0.46359   0.00000  Uiso   1.00
O1578  O     0.69362   0.51101   0.37462   0.00000  Uiso   1.00
O1579  O     0.69702   0.51923   0.21623   0.00000  Uiso   1.00
O1580  O     0.72650   0.45098   0.25179   0.00000  Uiso   1.00
O1581  O     0.73089   0.45116   0.34088   0.00000  Uiso   1.00
O1582  O     0.72140   0.45685   0.09416   0.00000  Uiso   1.00
O1583  O     0.69561   0.52270   0.12625   0.00000  Uiso   1.00
O1584  O     0.72650   0.45271   0.00204   0.00000  Uiso   1.00
O1585  O     0.69411   0.51513   0.96875   0.00000  Uiso   1.00
O1586  O     0.72749   0.45016   0.75175   0.00000  Uiso   1.00
O1587  O     0.69303   0.51416   0.72018   0.00000  Uiso   1.00
O1588  O     0.69414   0.52102   0.87582   0.00000  Uiso   1.00
O1589  O     0.72451   0.45455   0.84460   0.00000  Uiso   1.00
O1590  O     0.72945   0.44977   0.59377   0.00000  Uiso   1.00
O1591  O     0.69436   0.51268   0.62776   0.00000  Uiso   1.00
O1592  O     0.72583   0.45015   0.50053   0.00000  Uiso   1.00
O1593  O     0.55541   0.68638   0.24903   0.00000  Uiso   1.00
O1594  O     0.52474   0.62000   0.37183   0.00000  Uiso   1.00
O1595  O     0.72915   0.78619   0.25141   0.00000  Uiso   1.00
O1596  O     0.52694   0.62052   0.46305   0.00000  Uiso   1.00
O1597  O     0.55710   0.68147   0.34022   0.00000  Uiso   1.00
O1598  O     0.72963   0.78693   0.34246   0.00000  Uiso   1.00
O1599  O     0.52501   0.61925   0.12726   0.00000  Uiso   1.00
O1600  O     0.51972   0.62155   0.21856   0.00000  Uiso   1.00
O1601  O     0.72737   0.78642   0.09349   0.00000  Uiso   1.00
O1602  O     0.55209   0.68440   0.09334   0.00000  Uiso   1.00
O1603  O     0.55402   0.68948   0.49840   0.00000  Uiso   1.00
O1604  O     0.72955   0.78638   0.49991   0.00000  Uiso   1.00
O1605  O     0.72898   0.78380   0.00146   0.00000  Uiso   1.00
O1606  O     0.55254   0.68541   0.00047   0.00000  Uiso   1.00
O1607  O     0.52450   0.62279   0.96532   0.00000  Uiso   1.00
O1608  O     0.55509   0.68653   0.74966   0.00000  Uiso   1.00
O1609  O     0.73065   0.78716   0.84399   0.00000  Uiso   1.00
O1610  O     0.72865   0.78775   0.75075   0.00000  Uiso   1.00
O1611  O     0.55626   0.68421   0.84217   0.00000  Uiso   1.00
O1612  O     0.52288   0.61910   0.87475   0.00000  Uiso   1.00
O1613  O     0.53034   0.61992   0.62558   0.00000  Uiso   1.00
O1614  O     0.52511   0.62045   0.71527   0.00000  Uiso   1.00
O1615  O     0.73027   0.78564   0.59293   0.00000  Uiso   1.00
O1616  O     0.55750   0.68500   0.58868   0.00000  Uiso   1.00
O1617  O     0.69658   0.84875   0.46805   0.00000  Uiso   1.00
O1618  O     0.52434   0.94781   0.12358   0.00000  Uiso   1.00
O1619  O     0.69781   0.85040   0.12713   0.00000  Uiso   1.00
O1620  O     0.52571   0.95410   0.21457   0.00000  Uiso   1.00
O1621  O     0.70040   0.85284   0.21921   0.00000  Uiso   1.00
O1622  O     0.52300   0.94976   0.37296   0.00000  Uiso   1.00
O1623  O     0.69528   0.84763   0.37624   0.00000  Uiso   1.00
O1624  O     0.52458   0.95352   0.46401   0.00000  Uiso   1.00
O1625  O     0.52665   0.95323   0.96344   0.00000  Uiso   1.00
O1626  O     0.69893   0.84987   0.96647   0.00000  Uiso   1.00
O1627  O     0.52970   0.95367   0.61979   0.00000  Uiso   1.00
O1628  O     0.69815   0.84879   0.62467   0.00000  Uiso   1.00
O1629  O     0.52283   0.95263   0.71240   0.00000  Uiso   1.00
O1630  O     0.69791   0.85433   0.71806   0.00000  Uiso   1.00
O1631  O     0.52825   0.95222   0.86984   0.00000  Uiso   1.00
O1632  O     0.69840   0.85150   0.87519   0.00000  Uiso   1.00
O1633  O     0.97604   0.04741   0.25326   0.00000  Uiso   1.00
O1634  O     0.80488   0.15410   0.33887   0.00000  Uiso   1.00
O1635  O     0.97896   0.04937   0.09371   0.00000  Uiso   1.00
O1636  O     0.97732   0.04521   0.34453   0.00000  Uiso   1.00
O1637  O     0.80497   0.14905   0.24818   0.00000  Uiso   1.00
O1638  O     0.80467   0.15381   0.08844   0.00000  Uiso   1.00
O1639  O     0.97730   0.04652   0.49880   0.00000  Uiso   1.00
O1640  O     0.97895   0.05248   0.00146   0.00000  Uiso   1.00
O1641  O     0.98130   0.05350   0.74790   0.00000  Uiso   1.00
O1642  O     0.80510   0.15103   0.83948   0.00000  Uiso   1.00
O1643  O     0.98409   0.05050   0.59045   0.00000  Uiso   1.00
O1644  O     0.97942   0.05141   0.84075   0.00000  Uiso   1.00
O1645  O     0.80308   0.14663   0.75000   0.00000  Uiso   1.00
O1646  O     0.80701   0.15047   0.59176   0.00000  Uiso   1.00
O1647  O     0.80367   0.14947   0.99757   0.00000  Uiso   1.00
O1648  O     0.80647   0.14707   0.50059   0.00000  Uiso   1.00
O1649  O     0.97997   0.38226   0.34189   0.00000  Uiso   1.00
O1650  O     0.76878   0.21747   0.37727   0.00000  Uiso   1.00
O1651  O     0.94563   0.31818   0.37693   0.00000  Uiso   1.00
O1652  O     0.77098   0.21401   0.21589   0.00000  Uiso   1.00
O1653  O     0.94605   0.31851   0.21680   0.00000  Uiso   1.00
O1654  O     0.77081   0.21623   0.12486   0.00000  Uiso   1.00
O1655  O     0.94370   0.32184   0.12647   0.00000  Uiso   1.00
O1656  O     0.97497   0.38357   0.24987   0.00000  Uiso   1.00
O1657  O     0.98021   0.38441   0.09226   0.00000  Uiso   1.00
O1658  O     0.77833   0.21058   0.46627   0.00000  Uiso   1.00
O1659  O     0.94764   0.31206   0.46850   0.00000  Uiso   1.00
O1660  O     0.97411   0.38235   0.74883   0.00000  Uiso   1.00
O1661  O     0.94415   0.31806   0.87539   0.00000  Uiso   1.00
O1662  O     0.77032   0.21604   0.87230   0.00000  Uiso   1.00
O1663  O     0.77411   0.21061   0.71736   0.00000  Uiso   1.00
O1664  O     0.94614   0.31736   0.71726   0.00000  Uiso   1.00
O1665  O     0.77685   0.21271   0.62348   0.00000  Uiso   1.00
O1666  O     0.94666   0.31288   0.62437   0.00000  Uiso   1.00
O1667  O     0.97670   0.38388   0.84098   0.00000  Uiso   1.00
O1668  O     0.97143   0.37703   0.59215   0.00000  Uiso   1.00
O1669  O     0.77160   0.21495   0.96488   0.00000  Uiso   1.00
O1670  O     0.94430   0.31954   0.96865   0.00000  Uiso   1.00
O1671  O     0.97421   0.38542   0.99983   0.00000  Uiso   1.00
O1672  O     0.97083   0.37948   0.50108   0.00000  Uiso   1.00
O1673  O     0.77534   0.54627   0.21832   0.00000  Uiso   1.00
O1674  O     0.80405   0.48389   0.34370   0.00000  Uiso   1.00
O1675  O     0.80442   0.48008   0.25269   0.00000  Uiso   1.00
O1676  O     0.77424   0.54755   0.12595   0.00000  Uiso   1.00
O1677  O     0.80424   0.48375   0.09347   0.00000  Uiso   1.00
O1678  O     0.77306   0.54563   0.46937   0.00000  Uiso   1.00
O1679  O     0.76679   0.55035   0.37692   0.00000  Uiso   1.00
O1680  O     0.80578   0.48826   0.00478   0.00000  Uiso   1.00
O1681  O     0.76692   0.54871   0.71929   0.00000  Uiso   1.00
O1682  O     0.80087   0.48332   0.84346   0.00000  Uiso   1.00
O1683  O     0.80293   0.48806   0.59301   0.00000  Uiso   1.00
O1684  O     0.80091   0.48380   0.75311   0.00000  Uiso   1.00
O1685  O     0.76874   0.55292   0.96852   0.00000  Uiso   1.00
O1686  O     0.77231   0.54902   0.87620   0.00000  Uiso   1.00
O1687  O     0.76895   0.55085   0.62680   0.00000  Uiso   1.00
O1688  O     0.80307   0.48008   0.50077   0.00000  Uiso   1.00
O1689  O     0.97848   0.71447   0.34324   0.00000  Uiso   1.00
O1690  O     0.97771   0.71244   0.25193   0.00000  Uiso   1.00
O1691  O     0.94590   0.65242   0.46554   0.00000  Uiso   1.00
O1692  O     0.94695   0.65156   0.21987   0.00000  Uiso   1.00
O1693  O     0.94452   0.65143   0.12599   0.00000  Uiso   1.00
O1694  O     0.94840   0.64828   0.37454   0.00000  Uiso   1.00
O1695  O     0.97823   0.71489   0.09188   0.00000  Uiso   1.00
O1696  O     0.97266   0.71290   0.00296   0.00000  Uiso   1.00
O1697  O     0.97743   0.70908   0.84054   0.00000  Uiso   1.00
O1698  O     0.97625   0.70904   0.75105   0.00000  Uiso   1.00
O1699  O     0.94391   0.64762   0.71815   0.00000  Uiso   1.00
O1700  O     0.94455   0.64497   0.62553   0.00000  Uiso   1.00
O1701  O     0.94649   0.64344   0.87555   0.00000  Uiso   1.00
O1702  O     0.97520   0.71072   0.59355   0.00000  Uiso   1.00
O1703  O     0.94394   0.64580   0.96857   0.00000  Uiso   1.00
O1704  O     0.97901   0.71597   0.50073   0.00000  Uiso   1.00
O1705  O     0.80589   0.82033   0.34218   0.00000  Uiso   1.00
O1706  O     0.94223   0.98220   0.37718   0.00000  Uiso   1.00
O1707  O     0.80601   0.81951   0.00191   0.00000  Uiso   1.00
O1708  O     0.77201   0.88648   0.37764   0.00000  Uiso   1.00
O1709  O     0.94540   0.98142   0.47108   0.00000  Uiso   1.00
O1710  O     0.77565   0.88340   0.21830   0.00000  Uiso   1.00
O1711  O     0.94481   0.98449   0.21690   0.00000  Uiso   1.00
O1712  O     0.77200   0.88366   0.12713   0.00000  Uiso   1.00
O1713  O     0.94485   0.98751   0.12290   0.00000  Uiso   1.00
O1714  O     0.80604   0.81861   0.09210   0.00000  Uiso   1.00
O1715  O     0.77256   0.88086   0.46893   0.00000  Uiso   1.00
O1716  O     0.80760   0.81732   0.25059   0.00000  Uiso   1.00
O1717  O     0.80534   0.82041   0.49867   0.00000  Uiso   1.00
O1718  O     0.94763   0.98648   0.62473   0.00000  Uiso   1.00
O1719  O     0.94815   0.98681   0.96688   0.00000  Uiso   1.00
O1720  O     0.81169   0.82138   0.84370   0.00000  Uiso   1.00
O1721  O     0.94589   0.98689   0.87457   0.00000  Uiso   1.00
O1722  O     0.77414   0.88457   0.87719   0.00000  Uiso   1.00
O1723  O     0.77804   0.88117   0.71839   0.00000  Uiso   1.00
O1724  O     0.95003   0.98720   0.71578   0.00000  Uiso   1.00
O1725  O     0.77577   0.88247   0.62613   0.00000  Uiso   1.00
O1726  O     0.80633   0.81858   0.59264   0.00000  Uiso   1.00
O1727  O     0.77321   0.88196   0.96738   0.00000  Uiso   1.00
O1728  O     0.80559   0.81685   0.75052   0.00000  Uiso   1.00
O1729  O     0.23945   0.18576   0.29549   0.00000  Uiso   1.00
O1730  O     0.00906   0.01822   0.17250   0.00000  Uiso   1.00
O1731  O     0.00695   0.01503   0.42148   0.00000  Uiso   1.00
O1732  O     0.24052   0.18450   0.04498   0.00000  Uiso   1.00
O1733  O     0.00992   0.02110   0.92082   0.00000  Uiso   1.00
O1734  O     0.24104   0.18417   0.79676   0.00000  Uiso   1.00
O1735  O     0.01207   0.01942   0.67011   0.00000  Uiso   1.00
O1736  O     0.23902   0.18281   0.54635   0.00000  Uiso   1.00
O1737  O     0.00884   0.35247   0.17269   0.00000  Uiso   1.00
O1738  O     0.00606   0.35106   0.42175   0.00000  Uiso   1.00
O1739  O     0.00436   0.35267   0.92242   0.00000  Uiso   1.00
O1740  O     0.00705   0.35540   0.67059   0.00000  Uiso   1.00
O1741  O     0.23696   0.51873   0.29902   0.00000  Uiso   1.00
O1742  O     0.24366   0.51943   0.04879   0.00000  Uiso   1.00
O1743  O     0.24254   0.52134   0.79873   0.00000  Uiso   1.00
O1744  O     0.24239   0.51992   0.54784   0.00000  Uiso   1.00
O1745  O     0.00935   0.68428   0.17161   0.00000  Uiso   1.00
O1746  O     0.01083   0.68258   0.42262   0.00000  Uiso   1.00
O1747  O     0.00535   0.68058   0.67203   0.00000  Uiso   1.00
O1748  O     0.00909   0.68129   0.92269   0.00000  Uiso   1.00
O1749  O     0.23896   0.85175   0.04497   0.00000  Uiso   1.00
O1750  O     0.23966   0.84969   0.29575   0.00000  Uiso   1.00
O1751  O     0.24055   0.84902   0.79398   0.00000  Uiso   1.00
O1752  O     0.24208   0.85276   0.54176   0.00000  Uiso   1.00
O1753  O     0.25619   0.14643   0.17204   0.00000  Uiso   1.00
O1754  O     0.25708   0.14759   0.41978   0.00000  Uiso   1.00
O1755  O     0.25810   0.14915   0.92346   0.00000  Uiso   1.00
O1756  O     0.26185   0.14676   0.67037   0.00000  Uiso   1.00
O1757  O     0.49278   0.31396   0.04721   0.00000  Uiso   1.00
O1758  O     0.48953   0.31377   0.29445   0.00000  Uiso   1.00
O1759  O     0.48877   0.31357   0.54529   0.00000  Uiso   1.00
O1760  O     0.49040   0.31258   0.79288   0.00000  Uiso   1.00
O1761  O     0.25883   0.48418   0.42391   0.00000  Uiso   1.00
O1762  O     0.25794   0.48446   0.17345   0.00000  Uiso   1.00
O1763  O     0.26133   0.48282   0.92381   0.00000  Uiso   1.00
O1764  O     0.25590   0.48200   0.67447   0.00000  Uiso   1.00
O1765  O     0.49040   0.64651   0.04690   0.00000  Uiso   1.00
O1766  O     0.48964   0.65067   0.29531   0.00000  Uiso   1.00
O1767  O     0.49154   0.65067   0.79619   0.00000  Uiso   1.00
O1768  O     0.49522   0.64692   0.54562   0.00000  Uiso   1.00
O1769  O     0.25909   0.81441   0.16965   0.00000  Uiso   1.00
O1770  O     0.26059   0.81486   0.42117   0.00000  Uiso   1.00
O1771  O     0.49196   0.98094   0.04211   0.00000  Uiso   1.00
O1772  O     0.49154   0.98024   0.29242   0.00000  Uiso   1.00
O1773  O     0.25638   0.81345   0.92189   0.00000  Uiso   1.00
O1774  O     0.49271   0.98137   0.54298   0.00000  Uiso   1.00
O1775  O     0.25845   0.81403   0.67002   0.00000  Uiso   1.00
O1776  O     0.49288   0.98248   0.79113   0.00000  Uiso   1.00
O1777  O     0.50658   0.01679   0.16706   0.00000  Uiso   1.00
O1778  O     0.50913   0.01788   0.41689   0.00000  Uiso   1.00
O1779  O     0.73831   0.18242   0.29428   0.00000  Uiso   1.00
O1780  O     0.74059   0.18599   0.04330   0.00000  Uiso   1.00
O1781  O     0.74291   0.18417   0.79261   0.00000  Uiso   1.00
O1782  O     0.50853   0.01798   0.66683   0.00000  Uiso   1.00
O1783  O     0.74717   0.18424   0.54399   0.00000  Uiso   1.00
O1784  O     0.50933   0.01783   0.91599   0.00000  Uiso   1.00
O1785  O     0.50461   0.35220   0.42229   0.00000  Uiso   1.00
O1786  O     0.50836   0.35060   0.17193   0.00000  Uiso   1.00
O1787  O     0.50642   0.35241   0.67146   0.00000  Uiso   1.00
O1788  O     0.50515   0.34983   0.91989   0.00000  Uiso   1.00
O1789  O     0.74146   0.51703   0.29758   0.00000  Uiso   1.00
O1790  O     0.74020   0.52276   0.04725   0.00000  Uiso   1.00
O1791  O     0.73587   0.51603   0.54780   0.00000  Uiso   1.00
O1792  O     0.73809   0.51859   0.79784   0.00000  Uiso   1.00
O1793  O     0.50593   0.68802   0.17237   0.00000  Uiso   1.00
O1794  O     0.50849   0.68916   0.41819   0.00000  Uiso   1.00
O1795  O     0.50779   0.68896   0.92041   0.00000  Uiso   1.00
O1796  O     0.51143   0.68671   0.67052   0.00000  Uiso   1.00
O1797  O     0.74408   0.85434   0.29667   0.00000  Uiso   1.00
O1798  O     0.74359   0.85381   0.04807   0.00000  Uiso   1.00
O1799  O     0.74664   0.85419   0.79746   0.00000  Uiso   1.00
O1800  O     0.74395   0.85168   0.54723   0.00000  Uiso   1.00
O1801  O     0.76001   0.14937   0.16879   0.00000  Uiso   1.00
O1802  O     0.76232   0.14790   0.42116   0.00000  Uiso   1.00
O1803  O     0.75942   0.14562   0.66897   0.00000  Uiso   1.00
O1804  O     0.75965   0.15058   0.91767   0.00000  Uiso   1.00
O1805  O     0.99177   0.31519   0.29710   0.00000  Uiso   1.00
O1806  O     0.99033   0.31824   0.04723   0.00000  Uiso   1.00
O1807  O     0.99211   0.31646   0.79695   0.00000  Uiso   1.00
O1808  O     0.99501   0.31569   0.54677   0.00000  Uiso   1.00
O1809  O     0.75933   0.48158   0.17149   0.00000  Uiso   1.00
O1810  O     0.76059   0.48083   0.42299   0.00000  Uiso   1.00
O1811  O     0.76072   0.48329   0.67478   0.00000  Uiso   1.00
O1812  O     0.75556   0.48393   0.92285   0.00000  Uiso   1.00
O1813  O     0.99433   0.64596   0.29686   0.00000  Uiso   1.00
O1814  O     0.98875   0.64556   0.04700   0.00000  Uiso   1.00
O1815  O     0.99039   0.64283   0.79738   0.00000  Uiso   1.00
O1816  O     0.98847   0.64656   0.54670   0.00000  Uiso   1.00
O1817  O     0.99091   0.98677   0.04553   0.00000  Uiso   1.00
O1818  O     0.76168   0.81653   0.42141   0.00000  Uiso   1.00
O1819  O     0.76202   0.81589   0.17316   0.00000  Uiso   1.00
O1820  O     0.98841   0.97945   0.29650   0.00000  Uiso   1.00
O1821  O     0.75939   0.81575   0.67290   0.00000  Uiso   1.00
O1822  O     0.76313   0.81646   0.92163   0.00000  Uiso   1.00
O1823  O     0.99491   0.98077   0.54554   0.00000  Uiso   1.00
O1824  O     0.99351   0.98538   0.79568   0.00000  Uiso   1.00
