data_final_Br-Cu-SABVOH01
_audit_creation_date              2022-12-15
_audit_creation_method            'Materials Studio'
_symmetry_space_group_name_H-M    'P1'
_symmetry_Int_Tables_number       1
_symmetry_cell_setting            triclinic
loop_
_symmetry_equiv_pos_as_xyz
  x,y,z
_cell_length_a                    34.5628
_cell_length_b                    37.3532
_cell_length_c                    26.7437
_cell_angle_alpha                 90.0000
_cell_angle_beta                  90.0000
_cell_angle_gamma                 90.0000
loop_
_atom_site_label
_atom_site_type_symbol
_atom_site_fract_x
_atom_site_fract_y
_atom_site_fract_z
_atom_site_U_iso_or_equiv
_atom_site_adp_type
_atom_site_occupancy
Cu1    Cu    0.24906   0.15700   0.25850   0.00000  Uiso   1.00
Cu2    Cu    0.24789   0.15956   0.00744   0.00000  Uiso   1.00
Cu3    Cu    0.24869   0.16118   0.38338   0.00000  Uiso   1.00
Cu4    Cu    0.24788   0.16525   0.13174   0.00000  Uiso   1.00
Cu5    Cu    0.00127   0.00087   0.13607   0.00000  Uiso   1.00
Cu6    Cu    0.24920   0.16822   0.63201   0.00000  Uiso   1.00
Cu7    Cu    0.24856   0.16013   0.50844   0.00000  Uiso   1.00
Cu8    Cu    0.24762   0.16542   0.75512   0.00000  Uiso   1.00
Cu9    Cu    0.24789   0.16334   0.88185   0.00000  Uiso   1.00
Cu10   Cu    0.00192   0.33491   0.37896   0.00000  Uiso   1.00
Cu11   Cu    0.00208   0.33252   0.12897   0.00000  Uiso   1.00
Cu12   Cu    0.00502   0.33554   0.00178   0.00000  Uiso   1.00
Cu13   Cu    0.00040   0.33508   0.25330   0.00000  Uiso   1.00
Cu14   Cu    0.00120   0.33945   0.75722   0.00000  Uiso   1.00
Cu15   Cu    0.00566   0.33064   0.87906   0.00000  Uiso   1.00
Cu16   Cu    0.00254   0.33551   0.50309   0.00000  Uiso   1.00
Cu17   Cu    0.00326   0.33566   0.62888   0.00000  Uiso   1.00
Cu18   Cu    0.24965   0.50317   0.00968   0.00000  Uiso   1.00
Cu19   Cu    0.24949   0.50482   0.50637   0.00000  Uiso   1.00
Cu20   Cu    0.00047   0.66326   0.12681   0.00000  Uiso   1.00
Cu21   Cu    0.24933   0.83341   0.24850   0.00000  Uiso   1.00
Cu22   Cu    0.24951   0.83913   0.12709   0.00000  Uiso   1.00
Cu23   Cu    0.24979   0.82777   0.50110   0.00000  Uiso   1.00
Cu24   Cu    0.00231   0.99402   0.88577   0.00000  Uiso   1.00
Cu25   Cu    0.24729   0.83248   0.62468   0.00000  Uiso   1.00
Cu26   Cu    0.49686   0.00111   0.00583   0.00000  Uiso   1.00
Cu27   Cu    0.49955   0.00138   0.25806   0.00000  Uiso   1.00
Cu28   Cu    0.49898   0.00201   0.87961   0.00000  Uiso   1.00
Cu29   Cu    0.49830   0.32934   0.38405   0.00000  Uiso   1.00
Cu30   Cu    0.49690   0.33214   0.25950   0.00000  Uiso   1.00
Cu31   Cu    0.49672   0.32897   0.13442   0.00000  Uiso   1.00
Cu32   Cu    0.49799   0.33364   0.75917   0.00000  Uiso   1.00
Cu33   Cu    0.49783   0.33290   0.50619   0.00000  Uiso   1.00
Cu34   Cu    0.25534   0.50458   0.13519   0.00000  Uiso   1.00
Cu35   Cu    0.25012   0.50400   0.38358   0.00000  Uiso   1.00
Cu36   Cu    0.25165   0.50122   0.25803   0.00000  Uiso   1.00
Cu37   Cu    0.25040   0.50399   0.63261   0.00000  Uiso   1.00
Cu38   Cu    0.25244   0.50391   0.88466   0.00000  Uiso   1.00
Cu39   Cu    0.25115   0.50121   0.75999   0.00000  Uiso   1.00
Cu40   Cu    0.25009   0.83604   0.37789   0.00000  Uiso   1.00
Cu41   Cu    0.25082   0.83161   0.00142   0.00000  Uiso   1.00
Cu42   Cu    0.25005   0.83501   0.87532   0.00000  Uiso   1.00
Cu43   Cu    0.25098   0.82816   0.74924   0.00000  Uiso   1.00
Cu44   Cu    0.49714   0.99879   0.75541   0.00000  Uiso   1.00
Cu45   Cu    0.74617   0.16316   0.25266   0.00000  Uiso   1.00
Cu46   Cu    0.50134   0.00221   0.13115   0.00000  Uiso   1.00
Cu47   Cu    0.74714   0.16690   0.37802   0.00000  Uiso   1.00
Cu48   Cu    0.74824   0.16986   0.13024   0.00000  Uiso   1.00
Cu49   Cu    0.50265   0.00411   0.50790   0.00000  Uiso   1.00
Cu50   Cu    0.50073   0.32738   0.00849   0.00000  Uiso   1.00
Cu51   Cu    0.50286   0.32692   0.88227   0.00000  Uiso   1.00
Cu52   Cu    0.50108   0.33142   0.63042   0.00000  Uiso   1.00
Cu53   Cu    0.74959   0.49533   0.25106   0.00000  Uiso   1.00
Cu54   Cu    0.74780   0.49786   0.50347   0.00000  Uiso   1.00
Cu55   Cu    0.74996   0.50051   0.62673   0.00000  Uiso   1.00
Cu56   Cu    0.50083   0.66695   0.37633   0.00000  Uiso   1.00
Cu57   Cu    0.50418   0.66752   0.24943   0.00000  Uiso   1.00
Cu58   Cu    0.50351   0.66804   0.12362   0.00000  Uiso   1.00
Cu59   Cu    0.50387   0.66445   0.87921   0.00000  Uiso   1.00
Cu60   Cu    0.50092   0.67087   0.75193   0.00000  Uiso   1.00
Cu61   Cu    0.50136   0.66382   0.62657   0.00000  Uiso   1.00
Cu62   Cu    0.50194   0.66995   0.50111   0.00000  Uiso   1.00
Cu63   Cu    0.50081   0.66994   0.99995   0.00000  Uiso   1.00
Cu64   Cu    0.50346   0.99773   0.38029   0.00000  Uiso   1.00
Cu65   Cu    0.74866   0.82745   0.25341   0.00000  Uiso   1.00
Cu66   Cu    0.74920   0.83597   0.12751   0.00000  Uiso   1.00
Cu67   Cu    0.50034   0.99895   0.62957   0.00000  Uiso   1.00
Cu68   Cu    0.74908   0.82910   0.50180   0.00000  Uiso   1.00
Cu69   Cu    0.75103   0.16631   0.00430   0.00000  Uiso   1.00
Cu70   Cu    0.99829   0.00324   0.25958   0.00000  Uiso   1.00
Cu71   Cu    0.99987   0.00312   0.00989   0.00000  Uiso   1.00
Cu72   Cu    0.75002   0.16234   0.50284   0.00000  Uiso   1.00
Cu73   Cu    0.75379   0.16283   0.75494   0.00000  Uiso   1.00
Cu74   Cu    0.99965   0.00295   0.50859   0.00000  Uiso   1.00
Cu75   Cu    0.75303   0.16444   0.87877   0.00000  Uiso   1.00
Cu76   Cu    0.75263   0.17268   0.62943   0.00000  Uiso   1.00
Cu77   Cu    0.99862   0.00046   0.76050   0.00000  Uiso   1.00
Cu78   Cu    0.75092   0.50065   0.37586   0.00000  Uiso   1.00
Cu79   Cu    0.75347   0.49937   0.12626   0.00000  Uiso   1.00
Cu80   Cu    0.75247   0.49926   0.87667   0.00000  Uiso   1.00
Cu81   Cu    0.75251   0.49666   0.75227   0.00000  Uiso   1.00
Cu82   Cu    0.75018   0.49447   0.99982   0.00000  Uiso   1.00
Cu83   Cu    0.99962   0.66867   0.38098   0.00000  Uiso   1.00
Cu84   Cu    0.99998   0.67179   0.25387   0.00000  Uiso   1.00
Cu85   Cu    0.99665   0.66813   0.00513   0.00000  Uiso   1.00
Cu86   Cu    0.99631   0.66443   0.88072   0.00000  Uiso   1.00
Cu87   Cu    0.99929   0.67064   0.62962   0.00000  Uiso   1.00
Cu88   Cu    0.99848   0.67028   0.50536   0.00000  Uiso   1.00
Cu89   Cu    0.99667   0.67066   0.75508   0.00000  Uiso   1.00
Cu90   Cu    0.75035   0.83448   0.00013   0.00000  Uiso   1.00
Cu91   Cu    0.75057   0.83483   0.37752   0.00000  Uiso   1.00
Cu92   Cu    0.99719   0.99718   0.38750   0.00000  Uiso   1.00
Cu93   Cu    0.75224   0.84175   0.87574   0.00000  Uiso   1.00
Cu94   Cu    0.75086   0.83164   0.75191   0.00000  Uiso   1.00
Cu95   Cu    0.75405   0.83555   0.62502   0.00000  Uiso   1.00
Cu96   Cu    0.99877   0.99902   0.63503   0.00000  Uiso   1.00
Br97   Br    0.11516   0.01944   0.21957   0.00000  Uiso   1.00
Br98   Br    0.11523   0.02167   0.47783   0.00000  Uiso   1.00
Br99   Br    0.12440   0.17758   0.35741   0.00000  Uiso   1.00
Br100  Br    0.13504   0.18837   0.09515   0.00000  Uiso   1.00
Br101  Br    0.11657   0.01872   0.71632   0.00000  Uiso   1.00
Br102  Br    0.11949   0.00969   0.98411   0.00000  Uiso   1.00
Br103  Br    0.13405   0.18297   0.85204   0.00000  Uiso   1.00
Br104  Br    0.12678   0.18918   0.60963   0.00000  Uiso   1.00
Br105  Br    0.11672   0.35547   0.22432   0.00000  Uiso   1.00
Br106  Br    0.10668   0.37099   0.46270   0.00000  Uiso   1.00
Br107  Br    0.11023   0.37323   0.72035   0.00000  Uiso   1.00
Br108  Br    0.11694   0.36339   0.97655   0.00000  Uiso   1.00
Br109  Br    0.13205   0.52355   0.09897   0.00000  Uiso   1.00
Br110  Br    0.12807   0.52999   0.34487   0.00000  Uiso   1.00
Br111  Br    0.13762   0.52827   0.60757   0.00000  Uiso   1.00
Br112  Br    0.14175   0.52953   0.84204   0.00000  Uiso   1.00
Br113  Br    0.11979   0.68859   0.21737   0.00000  Uiso   1.00
Br114  Br    0.12232   0.67745   0.47641   0.00000  Uiso   1.00
Br115  Br    0.10581   0.70295   0.71387   0.00000  Uiso   1.00
Br116  Br    0.11668   0.68730   0.96763   0.00000  Uiso   1.00
Br117  Br    0.13049   0.86113   0.10429   0.00000  Uiso   1.00
Br118  Br    0.12525   0.84416   0.36363   0.00000  Uiso   1.00
Br119  Br    0.13460   0.85738   0.59283   0.00000  Uiso   1.00
Br120  Br    0.13608   0.86335   0.84169   0.00000  Uiso   1.00
Br121  Br    0.37048   0.14598   0.47404   0.00000  Uiso   1.00
Br122  Br    0.36428   0.13756   0.22379   0.00000  Uiso   1.00
Br123  Br    0.36780   0.14922   0.72012   0.00000  Uiso   1.00
Br124  Br    0.36462   0.14142   0.97024   0.00000  Uiso   1.00
Br125  Br    0.37715   0.30815   0.10249   0.00000  Uiso   1.00
Br126  Br    0.37470   0.30905   0.35221   0.00000  Uiso   1.00
Br127  Br    0.37690   0.30526   0.59161   0.00000  Uiso   1.00
Br128  Br    0.37985   0.31056   0.85585   0.00000  Uiso   1.00
Br129  Br    0.35940   0.47285   0.22401   0.00000  Uiso   1.00
Br130  Br    0.37126   0.47895   0.47682   0.00000  Uiso   1.00
Br131  Br    0.36842   0.47653   0.73427   0.00000  Uiso   1.00
Br132  Br    0.36936   0.47649   0.97450   0.00000  Uiso   1.00
Br133  Br    0.38200   0.64629   0.09659   0.00000  Uiso   1.00
Br134  Br    0.37639   0.65009   0.34411   0.00000  Uiso   1.00
Br135  Br    0.38460   0.64682   0.59987   0.00000  Uiso   1.00
Br136  Br    0.38597   0.64383   0.84645   0.00000  Uiso   1.00
Br137  Br    0.37096   0.81146   0.47249   0.00000  Uiso   1.00
Br138  Br    0.38310   0.97694   0.09549   0.00000  Uiso   1.00
Br139  Br    0.38255   0.97411   0.34645   0.00000  Uiso   1.00
Br140  Br    0.37106   0.80906   0.21529   0.00000  Uiso   1.00
Br141  Br    0.37117   0.80449   0.71699   0.00000  Uiso   1.00
Br142  Br    0.37700   0.97830   0.59356   0.00000  Uiso   1.00
Br143  Br    0.39042   0.96736   0.83625   0.00000  Uiso   1.00
Br144  Br    0.37109   0.82007   0.97064   0.00000  Uiso   1.00
Br145  Br    0.63579   0.18732   0.09812   0.00000  Uiso   1.00
Br146  Br    0.61431   0.02432   0.20725   0.00000  Uiso   1.00
Br147  Br    0.61536   0.02335   0.47460   0.00000  Uiso   1.00
Br148  Br    0.63063   0.18581   0.34729   0.00000  Uiso   1.00
Br149  Br    0.61676   0.02306   0.97121   0.00000  Uiso   1.00
Br150  Br    0.61417   0.03359   0.71409   0.00000  Uiso   1.00
Br151  Br    0.63167   0.18714   0.84026   0.00000  Uiso   1.00
Br152  Br    0.64167   0.19647   0.60184   0.00000  Uiso   1.00
Br153  Br    0.61283   0.35738   0.22330   0.00000  Uiso   1.00
Br154  Br    0.62198   0.34975   0.47829   0.00000  Uiso   1.00
Br155  Br    0.61182   0.35676   0.97641   0.00000  Uiso   1.00
Br156  Br    0.60885   0.36576   0.71852   0.00000  Uiso   1.00
Br157  Br    0.63724   0.52554   0.08719   0.00000  Uiso   1.00
Br158  Br    0.63390   0.52472   0.33892   0.00000  Uiso   1.00
Br159  Br    0.64009   0.53154   0.59318   0.00000  Uiso   1.00
Br160  Br    0.62872   0.51132   0.84748   0.00000  Uiso   1.00
Br161  Br    0.61691   0.68985   0.21477   0.00000  Uiso   1.00
Br162  Br    0.61850   0.68994   0.48147   0.00000  Uiso   1.00
Br163  Br    0.62008   0.69055   0.72488   0.00000  Uiso   1.00
Br164  Br    0.62149   0.68686   0.96992   0.00000  Uiso   1.00
Br165  Br    0.64185   0.86006   0.09230   0.00000  Uiso   1.00
Br166  Br    0.62514   0.84413   0.36603   0.00000  Uiso   1.00
Br167  Br    0.63224   0.85818   0.59325   0.00000  Uiso   1.00
Br168  Br    0.63857   0.86721   0.84431   0.00000  Uiso   1.00
Br169  Br    0.86918   0.13802   0.47456   0.00000  Uiso   1.00
Br170  Br    0.86593   0.14125   0.22354   0.00000  Uiso   1.00
Br171  Br    0.87312   0.13401   0.72091   0.00000  Uiso   1.00
Br172  Br    0.86797   0.14022   0.96516   0.00000  Uiso   1.00
Br173  Br    0.88138   0.31047   0.09627   0.00000  Uiso   1.00
Br174  Br    0.87947   0.30996   0.34368   0.00000  Uiso   1.00
Br175  Br    0.88737   0.30572   0.59402   0.00000  Uiso   1.00
Br176  Br    0.88937   0.30393   0.83611   0.00000  Uiso   1.00
Br177  Br    0.86068   0.46957   0.22056   0.00000  Uiso   1.00
Br178  Br    0.86231   0.47260   0.47201   0.00000  Uiso   1.00
Br179  Br    0.85755   0.46651   0.96070   0.00000  Uiso   1.00
Br180  Br    0.86406   0.47056   0.71395   0.00000  Uiso   1.00
Br181  Br    0.88085   0.64899   0.10300   0.00000  Uiso   1.00
Br182  Br    0.88411   0.64436   0.33576   0.00000  Uiso   1.00
Br183  Br    0.87936   0.64683   0.59574   0.00000  Uiso   1.00
Br184  Br    0.88616   0.64112   0.84750   0.00000  Uiso   1.00
Br185  Br    0.88130   0.98045   0.10135   0.00000  Uiso   1.00
Br186  Br    0.88884   0.97161   0.35000   0.00000  Uiso   1.00
Br187  Br    0.87115   0.81747   0.22139   0.00000  Uiso   1.00
Br188  Br    0.86870   0.81596   0.46531   0.00000  Uiso   1.00
Br189  Br    0.88489   0.97396   0.59283   0.00000  Uiso   1.00
Br190  Br    0.88113   0.98533   0.86014   0.00000  Uiso   1.00
Br191  Br    0.87101   0.81312   0.96953   0.00000  Uiso   1.00
Br192  Br    0.87009   0.81370   0.72204   0.00000  Uiso   1.00
H193   H     0.08752   0.07938   0.13995   0.00000  Uiso   1.00
H194   H     0.14794   0.10807   0.14678   0.00000  Uiso   1.00
H195   H     0.17852   0.06242   0.24796   0.00000  Uiso   1.00
H196   H     0.09400   0.06682   0.39751   0.00000  Uiso   1.00
H197   H     0.15331   0.09904   0.39880   0.00000  Uiso   1.00
H198   H     0.02079   0.04306   0.19486   0.00000  Uiso   1.00
H199   H     0.01597   0.04618   0.44297   0.00000  Uiso   1.00
H200   H     0.18742   0.05649   0.01080   0.00000  Uiso   1.00
H201   H     0.08487   0.08295   0.64683   0.00000  Uiso   1.00
H202   H     0.14775   0.11778   0.64401   0.00000  Uiso   1.00
H203   H     0.17773   0.06980   0.74345   0.00000  Uiso   1.00
H204   H     0.09782   0.05826   0.89598   0.00000  Uiso   1.00
H205   H     0.15761   0.09022   0.89832   0.00000  Uiso   1.00
H206   H     0.18313   0.06371   0.50919   0.00000  Uiso   1.00
H207   H     0.01474   0.04573   0.69899   0.00000  Uiso   1.00
H208   H     0.03574   0.03018   0.93842   0.00000  Uiso   1.00
H209   H     0.07318   0.23702   0.12389   0.00000  Uiso   1.00
H210   H     0.06792   0.23959   0.37541   0.00000  Uiso   1.00
H211   H     0.15763   0.24497   0.27137   0.00000  Uiso   1.00
H212   H     0.10116   0.27941   0.26553   0.00000  Uiso   1.00
H213   H     0.11054   0.28324   0.01488   0.00000  Uiso   1.00
H214   H     0.16892   0.25069   0.01485   0.00000  Uiso   1.00
H215   H     0.24934   0.20637   0.06370   0.00000  Uiso   1.00
H216   H     0.16928   0.24800   0.50913   0.00000  Uiso   1.00
H217   H     0.07158   0.23985   0.63814   0.00000  Uiso   1.00
H218   H     0.10964   0.28811   0.51204   0.00000  Uiso   1.00
H219   H     0.06990   0.22741   0.88242   0.00000  Uiso   1.00
H220   H     0.17662   0.26109   0.75913   0.00000  Uiso   1.00
H221   H     0.11679   0.29517   0.76689   0.00000  Uiso   1.00
H222   H     0.24845   0.20838   0.56880   0.00000  Uiso   1.00
H223   H     0.07198   0.57059   0.12516   0.00000  Uiso   1.00
H224   H     0.14660   0.44460   0.15611   0.00000  Uiso   1.00
H225   H     0.06977   0.57717   0.37151   0.00000  Uiso   1.00
H226   H     0.14173   0.45182   0.39669   0.00000  Uiso   1.00
H227   H     0.08113   0.42295   0.38501   0.00000  Uiso   1.00
H228   H     0.15797   0.57466   0.02141   0.00000  Uiso   1.00
H229   H     0.23307   0.54356   0.31879   0.00000  Uiso   1.00
H230   H     0.24020   0.54715   0.07139   0.00000  Uiso   1.00
H231   H     0.16312   0.58518   0.26245   0.00000  Uiso   1.00
H232   H     0.17696   0.40782   0.24943   0.00000  Uiso   1.00
H233   H     0.08890   0.41373   0.15217   0.00000  Uiso   1.00
H234   H     0.17064   0.41942   0.49705   0.00000  Uiso   1.00
H235   H     0.24878   0.45742   0.44860   0.00000  Uiso   1.00
H236   H     0.17371   0.41803   0.00120   0.00000  Uiso   1.00
H237   H     0.14199   0.45188   0.64508   0.00000  Uiso   1.00
H238   H     0.07926   0.58141   0.62457   0.00000  Uiso   1.00
H239   H     0.15275   0.57582   0.52432   0.00000  Uiso   1.00
H240   H     0.24547   0.55081   0.82308   0.00000  Uiso   1.00
H241   H     0.14676   0.45376   0.89872   0.00000  Uiso   1.00
H242   H     0.08519   0.41166   0.89741   0.00000  Uiso   1.00
H243   H     0.22671   0.54601   0.56924   0.00000  Uiso   1.00
H244   H     0.16702   0.42139   0.74815   0.00000  Uiso   1.00
H245   H     0.08343   0.41994   0.63773   0.00000  Uiso   1.00
H246   H     0.08151   0.58381   0.86709   0.00000  Uiso   1.00
H247   H     0.23334   0.46328   0.94866   0.00000  Uiso   1.00
H248   H     0.16629   0.58695   0.77595   0.00000  Uiso   1.00
H249   H     0.02322   0.70597   0.18729   0.00000  Uiso   1.00
H250   H     0.09716   0.73744   0.14596   0.00000  Uiso   1.00
H251   H     0.09793   0.60736   0.02254   0.00000  Uiso   1.00
H252   H     0.18144   0.73736   0.24417   0.00000  Uiso   1.00
H253   H     0.09634   0.73623   0.39321   0.00000  Uiso   1.00
H254   H     0.15292   0.77437   0.39034   0.00000  Uiso   1.00
H255   H     0.10066   0.60853   0.27548   0.00000  Uiso   1.00
H256   H     0.15567   0.76919   0.14400   0.00000  Uiso   1.00
H257   H     0.00681   0.62183   0.31634   0.00000  Uiso   1.00
H258   H     0.01908   0.71224   0.43935   0.00000  Uiso   1.00
H259   H     0.09645   0.60644   0.52313   0.00000  Uiso   1.00
H260   H     0.08937   0.75048   0.62864   0.00000  Uiso   1.00
H261   H     0.15114   0.78257   0.63052   0.00000  Uiso   1.00
H262   H     0.17343   0.73662   0.74108   0.00000  Uiso   1.00
H263   H     0.09172   0.73748   0.89291   0.00000  Uiso   1.00
H264   H     0.15343   0.76949   0.89597   0.00000  Uiso   1.00
H265   H     0.00256   0.71385   0.94611   0.00000  Uiso   1.00
H266   H     0.10750   0.62562   0.76861   0.00000  Uiso   1.00
H267   H     0.01429   0.71345   0.68924   0.00000  Uiso   1.00
H268   H     0.17388   0.74286   0.99005   0.00000  Uiso   1.00
H269   H     0.18421   0.72075   0.50155   0.00000  Uiso   1.00
H270   H     0.06927   0.90402   0.14023   0.00000  Uiso   1.00
H271   H     0.16276   0.90713   0.01998   0.00000  Uiso   1.00
H272   H     0.06645   0.89972   0.38451   0.00000  Uiso   1.00
H273   H     0.17059   0.92396   0.26492   0.00000  Uiso   1.00
H274   H     0.10553   0.94950   0.27545   0.00000  Uiso   1.00
H275   H     0.09643   0.92722   0.03205   0.00000  Uiso   1.00
H276   H     0.00665   0.95592   0.06792   0.00000  Uiso   1.00
H277   H     0.24864   0.88344   0.05767   0.00000  Uiso   1.00
H278   H     0.06799   0.90341   0.62228   0.00000  Uiso   1.00
H279   H     0.11459   0.95280   0.51359   0.00000  Uiso   1.00
H280   H     0.07392   0.90808   0.87209   0.00000  Uiso   1.00
H281   H     0.16474   0.91118   0.75957   0.00000  Uiso   1.00
H282   H     0.10849   0.94251   0.76724   0.00000  Uiso   1.00
H283   H     0.16965   0.91625   0.51182   0.00000  Uiso   1.00
H284   H     0.24734   0.87975   0.56164   0.00000  Uiso   1.00
H285   H     0.42914   0.09537   0.25265   0.00000  Uiso   1.00
H286   H     0.34374   0.09705   0.14346   0.00000  Uiso   1.00
H287   H     0.40355   0.06871   0.15109   0.00000  Uiso   1.00
H288   H     0.25949   0.11181   0.45081   0.00000  Uiso   1.00
H289   H     0.34434   0.09516   0.40199   0.00000  Uiso   1.00
H290   H     0.41299   0.06889   0.40444   0.00000  Uiso   1.00
H291   H     0.27331   0.11978   0.18623   0.00000  Uiso   1.00
H292   H     0.42787   0.09645   0.74440   0.00000  Uiso   1.00
H293   H     0.34052   0.08417   0.64016   0.00000  Uiso   1.00
H294   H     0.40301   0.05374   0.63957   0.00000  Uiso   1.00
H295   H     0.26043   0.11514   0.93964   0.00000  Uiso   1.00
H296   H     0.33943   0.09528   0.89106   0.00000  Uiso   1.00
H297   H     0.39204   0.05507   0.88730   0.00000  Uiso   1.00
H298   H     0.26012   0.11983   0.69579   0.00000  Uiso   1.00
H299   H     0.43672   0.10573   0.50150   0.00000  Uiso   1.00
H300   H     0.42740   0.09335   0.99389   0.00000  Uiso   1.00
H301   H     0.40106   0.39259   0.40242   0.00000  Uiso   1.00
H302   H     0.48631   0.28539   0.31852   0.00000  Uiso   1.00
H303   H     0.32313   0.25152   0.12740   0.00000  Uiso   1.00
H304   H     0.40818   0.25410   0.27247   0.00000  Uiso   1.00
H305   H     0.34711   0.21965   0.27824   0.00000  Uiso   1.00
H306   H     0.31703   0.25618   0.37692   0.00000  Uiso   1.00
H307   H     0.25122   0.20276   0.31583   0.00000  Uiso   1.00
H308   H     0.40953   0.25013   0.01997   0.00000  Uiso   1.00
H309   H     0.35196   0.21922   0.02423   0.00000  Uiso   1.00
H310   H     0.39664   0.38896   0.14473   0.00000  Uiso   1.00
H311   H     0.48294   0.28671   0.06962   0.00000  Uiso   1.00
H312   H     0.49182   0.37734   0.19491   0.00000  Uiso   1.00
H313   H     0.34423   0.22820   0.77428   0.00000  Uiso   1.00
H314   H     0.41045   0.25335   0.52066   0.00000  Uiso   1.00
H315   H     0.31545   0.25944   0.62584   0.00000  Uiso   1.00
H316   H     0.40706   0.25705   0.76835   0.00000  Uiso   1.00
H317   H     0.31994   0.25907   0.88066   0.00000  Uiso   1.00
H318   H     0.25066   0.20797   0.82269   0.00000  Uiso   1.00
H319   H     0.39633   0.38286   0.89953   0.00000  Uiso   1.00
H320   H     0.48245   0.28858   0.81409   0.00000  Uiso   1.00
H321   H     0.34619   0.22064   0.52622   0.00000  Uiso   1.00
H322   H     0.39153   0.38328   0.64412   0.00000  Uiso   1.00
H323   H     0.48850   0.28724   0.56728   0.00000  Uiso   1.00
H324   H     0.49066   0.37753   0.69409   0.00000  Uiso   1.00
H325   H     0.49720   0.37220   0.94593   0.00000  Uiso   1.00
H326   H     0.34967   0.56806   0.02649   0.00000  Uiso   1.00
H327   H     0.42193   0.42665   0.24953   0.00000  Uiso   1.00
H328   H     0.41245   0.59862   0.01755   0.00000  Uiso   1.00
H329   H     0.35030   0.56980   0.27883   0.00000  Uiso   1.00
H330   H     0.33441   0.42451   0.14206   0.00000  Uiso   1.00
H331   H     0.33831   0.42591   0.39797   0.00000  Uiso   1.00
H332   H     0.25801   0.45541   0.19243   0.00000  Uiso   1.00
H333   H     0.32214   0.59702   0.12298   0.00000  Uiso   1.00
H334   H     0.42578   0.42336   0.75931   0.00000  Uiso   1.00
H335   H     0.41495   0.59198   0.77264   0.00000  Uiso   1.00
H336   H     0.33403   0.41494   0.89746   0.00000  Uiso   1.00
H337   H     0.35169   0.55895   0.77256   0.00000  Uiso   1.00
H338   H     0.33581   0.42144   0.64640   0.00000  Uiso   1.00
H339   H     0.34901   0.56184   0.51361   0.00000  Uiso   1.00
H340   H     0.40821   0.59555   0.51485   0.00000  Uiso   1.00
H341   H     0.41403   0.41371   0.98928   0.00000  Uiso   1.00
H342   H     0.31991   0.59556   0.87795   0.00000  Uiso   1.00
H343   H     0.42502   0.42420   0.50097   0.00000  Uiso   1.00
H344   H     0.25817   0.45407   0.69191   0.00000  Uiso   1.00
H345   H     0.32114   0.59921   0.62898   0.00000  Uiso   1.00
H346   H     0.48225   0.62963   0.31139   0.00000  Uiso   1.00
H347   H     0.42161   0.75258   0.23671   0.00000  Uiso   1.00
H348   H     0.33600   0.76151   0.13695   0.00000  Uiso   1.00
H349   H     0.39875   0.72716   0.14273   0.00000  Uiso   1.00
H350   H     0.49373   0.71013   0.18449   0.00000  Uiso   1.00
H351   H     0.34342   0.76140   0.39271   0.00000  Uiso   1.00
H352   H     0.40343   0.72559   0.39315   0.00000  Uiso   1.00
H353   H     0.27086   0.79113   0.18576   0.00000  Uiso   1.00
H354   H     0.26402   0.78943   0.43377   0.00000  Uiso   1.00
H355   H     0.31362   0.60719   0.37381   0.00000  Uiso   1.00
H356   H     0.49884   0.71299   0.43862   0.00000  Uiso   1.00
H357   H     0.48153   0.63044   0.06429   0.00000  Uiso   1.00
H358   H     0.41114   0.60317   0.26711   0.00000  Uiso   1.00
H359   H     0.42868   0.76180   0.49557   0.00000  Uiso   1.00
H360   H     0.42560   0.76534   0.99394   0.00000  Uiso   1.00
H361   H     0.43471   0.76108   0.75274   0.00000  Uiso   1.00
H362   H     0.33451   0.75331   0.63404   0.00000  Uiso   1.00
H363   H     0.39639   0.71863   0.63736   0.00000  Uiso   1.00
H364   H     0.33465   0.75556   0.89017   0.00000  Uiso   1.00
H365   H     0.39666   0.71940   0.89713   0.00000  Uiso   1.00
H366   H     0.26350   0.78449   0.68645   0.00000  Uiso   1.00
H367   H     0.48205   0.62690   0.56020   0.00000  Uiso   1.00
H368   H     0.26600   0.78793   0.93833   0.00000  Uiso   1.00
H369   H     0.47703   0.62784   0.80976   0.00000  Uiso   1.00
H370   H     0.48175   0.71043   0.68712   0.00000  Uiso   1.00
H371   H     0.49813   0.71271   0.93791   0.00000  Uiso   1.00
H372   H     0.34750   0.89827   0.01883   0.00000  Uiso   1.00
H373   H     0.40954   0.92030   0.01234   0.00000  Uiso   1.00
H374   H     0.32466   0.92778   0.12156   0.00000  Uiso   1.00
H375   H     0.41409   0.92071   0.26438   0.00000  Uiso   1.00
H376   H     0.35010   0.88947   0.26653   0.00000  Uiso   1.00
H377   H     0.32595   0.92644   0.37803   0.00000  Uiso   1.00
H378   H     0.26103   0.87817   0.31645   0.00000  Uiso   1.00
H379   H     0.49803   0.95429   0.06849   0.00000  Uiso   1.00
H380   H     0.25292   0.87909   0.80921   0.00000  Uiso   1.00
H381   H     0.36104   0.88177   0.52031   0.00000  Uiso   1.00
H382   H     0.32495   0.92072   0.61313   0.00000  Uiso   1.00
H383   H     0.41568   0.91585   0.75904   0.00000  Uiso   1.00
H384   H     0.35355   0.88244   0.75936   0.00000  Uiso   1.00
H385   H     0.32889   0.92468   0.86440   0.00000  Uiso   1.00
H386   H     0.41752   0.92104   0.52373   0.00000  Uiso   1.00
H387   H     0.52486   0.04497   0.43957   0.00000  Uiso   1.00
H388   H     0.58307   0.08267   0.13477   0.00000  Uiso   1.00
H389   H     0.64928   0.11234   0.14307   0.00000  Uiso   1.00
H390   H     0.68244   0.06407   0.24903   0.00000  Uiso   1.00
H391   H     0.59367   0.06734   0.39262   0.00000  Uiso   1.00
H392   H     0.65150   0.10006   0.39608   0.00000  Uiso   1.00
H393   H     0.51782   0.04416   0.19568   0.00000  Uiso   1.00
H394   H     0.67750   0.06848   0.50082   0.00000  Uiso   1.00
H395   H     0.67176   0.07753   0.99136   0.00000  Uiso   1.00
H396   H     0.58380   0.08900   0.63920   0.00000  Uiso   1.00
H397   H     0.64941   0.11915   0.64002   0.00000  Uiso   1.00
H398   H     0.50875   0.04519   0.68734   0.00000  Uiso   1.00
H399   H     0.67477   0.07025   0.74886   0.00000  Uiso   1.00
H400   H     0.58580   0.08374   0.88883   0.00000  Uiso   1.00
H401   H     0.64743   0.11174   0.89464   0.00000  Uiso   1.00
H402   H     0.51488   0.04438   0.93651   0.00000  Uiso   1.00
H403   H     0.59650   0.26759   0.01704   0.00000  Uiso   1.00
H404   H     0.56756   0.23244   0.11870   0.00000  Uiso   1.00
H405   H     0.56485   0.22934   0.37816   0.00000  Uiso   1.00
H406   H     0.65688   0.23884   0.26836   0.00000  Uiso   1.00
H407   H     0.59644   0.27602   0.26588   0.00000  Uiso   1.00
H408   H     0.66638   0.24516   0.00782   0.00000  Uiso   1.00
H409   H     0.74531   0.21027   0.31470   0.00000  Uiso   1.00
H410   H     0.74662   0.21511   0.06437   0.00000  Uiso   1.00
H411   H     0.50076   0.37659   0.44188   0.00000  Uiso   1.00
H412   H     0.57777   0.24256   0.62810   0.00000  Uiso   1.00
H413   H     0.59735   0.27573   0.51881   0.00000  Uiso   1.00
H414   H     0.56741   0.23034   0.87116   0.00000  Uiso   1.00
H415   H     0.66545   0.24692   0.77529   0.00000  Uiso   1.00
H416   H     0.60293   0.27822   0.77699   0.00000  Uiso   1.00
H417   H     0.66080   0.24437   0.51154   0.00000  Uiso   1.00
H418   H     0.64391   0.44558   0.14581   0.00000  Uiso   1.00
H419   H     0.66712   0.57328   0.25935   0.00000  Uiso   1.00
H420   H     0.66034   0.57496   0.01135   0.00000  Uiso   1.00
H421   H     0.67427   0.40578   0.25251   0.00000  Uiso   1.00
H422   H     0.57327   0.57292   0.36360   0.00000  Uiso   1.00
H423   H     0.63876   0.45004   0.39508   0.00000  Uiso   1.00
H424   H     0.57784   0.57579   0.11244   0.00000  Uiso   1.00
H425   H     0.58062   0.41859   0.14079   0.00000  Uiso   1.00
H426   H     0.57896   0.41534   0.39044   0.00000  Uiso   1.00
H427   H     0.73711   0.54216   0.06177   0.00000  Uiso   1.00
H428   H     0.74137   0.54102   0.30829   0.00000  Uiso   1.00
H429   H     0.74146   0.45322   0.43857   0.00000  Uiso   1.00
H430   H     0.74364   0.45465   0.18422   0.00000  Uiso   1.00
H431   H     0.63376   0.45566   0.63828   0.00000  Uiso   1.00
H432   H     0.57571   0.57643   0.62042   0.00000  Uiso   1.00
H433   H     0.66275   0.57636   0.76865   0.00000  Uiso   1.00
H434   H     0.58499   0.41759   0.89010   0.00000  Uiso   1.00
H435   H     0.56732   0.56523   0.87602   0.00000  Uiso   1.00
H436   H     0.64475   0.44374   0.89335   0.00000  Uiso   1.00
H437   H     0.73796   0.54091   0.81187   0.00000  Uiso   1.00
H438   H     0.72942   0.54180   0.56709   0.00000  Uiso   1.00
H439   H     0.65505   0.57680   0.51243   0.00000  Uiso   1.00
H440   H     0.67817   0.40423   0.50512   0.00000  Uiso   1.00
H441   H     0.67620   0.40489   0.74438   0.00000  Uiso   1.00
H442   H     0.74460   0.45085   0.68322   0.00000  Uiso   1.00
H443   H     0.57587   0.42503   0.62845   0.00000  Uiso   1.00
H444   H     0.66655   0.40862   0.99358   0.00000  Uiso   1.00
H445   H     0.60382   0.60987   0.26491   0.00000  Uiso   1.00
H446   H     0.60466   0.61182   0.01118   0.00000  Uiso   1.00
H447   H     0.59076   0.74751   0.13650   0.00000  Uiso   1.00
H448   H     0.68185   0.73785   0.24428   0.00000  Uiso   1.00
H449   H     0.58938   0.74360   0.38540   0.00000  Uiso   1.00
H450   H     0.65323   0.77337   0.39350   0.00000  Uiso   1.00
H451   H     0.65129   0.78180   0.13806   0.00000  Uiso   1.00
H452   H     0.64992   0.77618   0.64955   0.00000  Uiso   1.00
H453   H     0.58525   0.75123   0.64265   0.00000  Uiso   1.00
H454   H     0.60667   0.61187   0.77239   0.00000  Uiso   1.00
H455   H     0.67968   0.74317   0.74948   0.00000  Uiso   1.00
H456   H     0.58415   0.75323   0.88951   0.00000  Uiso   1.00
H457   H     0.64161   0.78917   0.88792   0.00000  Uiso   1.00
H458   H     0.67895   0.73781   0.99178   0.00000  Uiso   1.00
H459   H     0.59768   0.60955   0.51479   0.00000  Uiso   1.00
H460   H     0.68051   0.73749   0.50758   0.00000  Uiso   1.00
H461   H     0.74283   0.78858   0.68740   0.00000  Uiso   1.00
H462   H     0.58199   0.91373   0.11180   0.00000  Uiso   1.00
H463   H     0.66326   0.92020   0.02067   0.00000  Uiso   1.00
H464   H     0.56548   0.90266   0.38438   0.00000  Uiso   1.00
H465   H     0.65511   0.90410   0.26986   0.00000  Uiso   1.00
H466   H     0.59986   0.93967   0.26908   0.00000  Uiso   1.00
H467   H     0.60053   0.94225   0.02455   0.00000  Uiso   1.00
H468   H     0.50674   0.95106   0.31488   0.00000  Uiso   1.00
H469   H     0.74831   0.88092   0.31099   0.00000  Uiso   1.00
H470   H     0.57169   0.90466   0.62216   0.00000  Uiso   1.00
H471   H     0.60818   0.95149   0.51419   0.00000  Uiso   1.00
H472   H     0.57770   0.91503   0.87127   0.00000  Uiso   1.00
H473   H     0.66756   0.91658   0.76232   0.00000  Uiso   1.00
H474   H     0.60242   0.94383   0.76896   0.00000  Uiso   1.00
H475   H     0.72559   0.87314   0.81205   0.00000  Uiso   1.00
H476   H     0.50745   0.95508   0.56642   0.00000  Uiso   1.00
H477   H     0.66405   0.91424   0.51566   0.00000  Uiso   1.00
H478   H     0.72597   0.86873   0.56424   0.00000  Uiso   1.00
H479   H     0.50048   0.95530   0.81292   0.00000  Uiso   1.00
H480   H     0.92800   0.09554   0.25293   0.00000  Uiso   1.00
H481   H     0.83681   0.08846   0.13842   0.00000  Uiso   1.00
H482   H     0.90006   0.06040   0.14817   0.00000  Uiso   1.00
H483   H     0.83250   0.08962   0.39292   0.00000  Uiso   1.00
H484   H     0.89106   0.05642   0.39826   0.00000  Uiso   1.00
H485   H     0.76684   0.12793   0.44067   0.00000  Uiso   1.00
H486   H     0.77063   0.12549   0.18982   0.00000  Uiso   1.00
H487   H     0.93087   0.09124   0.75442   0.00000  Uiso   1.00
H488   H     0.83005   0.08070   0.63909   0.00000  Uiso   1.00
H489   H     0.89171   0.04806   0.64547   0.00000  Uiso   1.00
H490   H     0.83995   0.08624   0.89913   0.00000  Uiso   1.00
H491   H     0.90604   0.06323   0.91121   0.00000  Uiso   1.00
H492   H     0.76924   0.12389   0.68964   0.00000  Uiso   1.00
H493   H     0.77866   0.12603   0.94403   0.00000  Uiso   1.00
H494   H     0.92616   0.09079   0.50753   0.00000  Uiso   1.00
H495   H     0.92939   0.09386   0.99983   0.00000  Uiso   1.00
H496   H     0.98402   0.29268   0.31232   0.00000  Uiso   1.00
H497   H     0.99325   0.28599   0.06443   0.00000  Uiso   1.00
H498   H     0.81748   0.26478   0.13015   0.00000  Uiso   1.00
H499   H     0.91338   0.25201   0.26518   0.00000  Uiso   1.00
H500   H     0.91287   0.26330   0.01885   0.00000  Uiso   1.00
H501   H     0.90047   0.39359   0.39631   0.00000  Uiso   1.00
H502   H     0.82109   0.25982   0.37254   0.00000  Uiso   1.00
H503   H     0.86018   0.21958   0.01536   0.00000  Uiso   1.00
H504   H     0.89959   0.38595   0.13711   0.00000  Uiso   1.00
H505   H     0.85019   0.22117   0.26914   0.00000  Uiso   1.00
H506   H     0.98269   0.37395   0.18898   0.00000  Uiso   1.00
H507   H     0.99415   0.37996   0.44051   0.00000  Uiso   1.00
H508   H     0.85570   0.22056   0.51734   0.00000  Uiso   1.00
H509   H     0.83412   0.24891   0.61978   0.00000  Uiso   1.00
H510   H     0.92409   0.24945   0.76351   0.00000  Uiso   1.00
H511   H     0.89263   0.38226   0.64232   0.00000  Uiso   1.00
H512   H     0.89117   0.37949   0.88736   0.00000  Uiso   1.00
H513   H     0.82762   0.25768   0.86841   0.00000  Uiso   1.00
H514   H     0.99734   0.37654   0.94370   0.00000  Uiso   1.00
H515   H     0.91342   0.25009   0.50840   0.00000  Uiso   1.00
H516   H     0.98185   0.29320   0.81443   0.00000  Uiso   1.00
H517   H     0.86714   0.21263   0.76652   0.00000  Uiso   1.00
H518   H     0.99652   0.28985   0.56449   0.00000  Uiso   1.00
H519   H     0.99255   0.38105   0.69198   0.00000  Uiso   1.00
H520   H     0.75360   0.21149   0.81311   0.00000  Uiso   1.00
H521   H     0.76455   0.21083   0.56018   0.00000  Uiso   1.00
H522   H     0.82044   0.59243   0.36436   0.00000  Uiso   1.00
H523   H     0.91891   0.41797   0.24107   0.00000  Uiso   1.00
H524   H     0.83497   0.41650   0.39227   0.00000  Uiso   1.00
H525   H     0.91557   0.58345   0.26586   0.00000  Uiso   1.00
H526   H     0.85722   0.55015   0.26913   0.00000  Uiso   1.00
H527   H     0.91910   0.58105   0.01448   0.00000  Uiso   1.00
H528   H     0.85499   0.54714   0.01503   0.00000  Uiso   1.00
H529   H     0.83819   0.41437   0.13645   0.00000  Uiso   1.00
H530   H     0.82574   0.58961   0.12044   0.00000  Uiso   1.00
H531   H     0.92257   0.42264   0.49479   0.00000  Uiso   1.00
H532   H     0.84497   0.56694   0.51891   0.00000  Uiso   1.00
H533   H     0.83364   0.41105   0.88234   0.00000  Uiso   1.00
H534   H     0.86325   0.54421   0.76248   0.00000  Uiso   1.00
H535   H     0.82600   0.59178   0.62514   0.00000  Uiso   1.00
H536   H     0.93245   0.43152   0.75441   0.00000  Uiso   1.00
H537   H     0.83013   0.40945   0.63448   0.00000  Uiso   1.00
H538   H     0.91831   0.58102   0.75951   0.00000  Uiso   1.00
H539   H     0.91628   0.41301   0.98208   0.00000  Uiso   1.00
H540   H     0.82383   0.59299   0.87504   0.00000  Uiso   1.00
H541   H     0.75134   0.45261   0.93596   0.00000  Uiso   1.00
H542   H     0.93294   0.76661   0.24696   0.00000  Uiso   1.00
H543   H     0.83561   0.76213   0.13771   0.00000  Uiso   1.00
H544   H     0.89472   0.72874   0.14460   0.00000  Uiso   1.00
H545   H     0.84444   0.75583   0.39422   0.00000  Uiso   1.00
H546   H     0.90788   0.73241   0.39401   0.00000  Uiso   1.00
H547   H     0.77036   0.78994   0.18488   0.00000  Uiso   1.00
H548   H     0.93207   0.77281   0.49559   0.00000  Uiso   1.00
H549   H     0.76996   0.78840   0.43913   0.00000  Uiso   1.00
H550   H     0.99411   0.61947   0.05999   0.00000  Uiso   1.00
H551   H     0.92889   0.76459   0.74918   0.00000  Uiso   1.00
H552   H     0.83987   0.76059   0.63530   0.00000  Uiso   1.00
H553   H     0.90021   0.73137   0.64312   0.00000  Uiso   1.00
H554   H     0.76187   0.79149   0.93526   0.00000  Uiso   1.00
H555   H     0.84193   0.76300   0.89527   0.00000  Uiso   1.00
H556   H     0.90218   0.73203   0.90221   0.00000  Uiso   1.00
H557   H     0.92648   0.75973   0.99491   0.00000  Uiso   1.00
H558   H     0.90136   0.60221   0.51678   0.00000  Uiso   1.00
H559   H     0.99496   0.62002   0.81586   0.00000  Uiso   1.00
H560   H     0.99869   0.62476   0.56942   0.00000  Uiso   1.00
H561   H     0.86032   0.88137   0.01657   0.00000  Uiso   1.00
H562   H     0.75521   0.88383   0.05959   0.00000  Uiso   1.00
H563   H     0.81892   0.92648   0.12785   0.00000  Uiso   1.00
H564   H     0.90773   0.92085   0.27189   0.00000  Uiso   1.00
H565   H     0.84701   0.89026   0.27181   0.00000  Uiso   1.00
H566   H     0.82192   0.92878   0.37478   0.00000  Uiso   1.00
H567   H     0.97218   0.95680   0.31548   0.00000  Uiso   1.00
H568   H     0.91978   0.91338   0.01294   0.00000  Uiso   1.00
H569   H     0.90717   0.92113   0.52216   0.00000  Uiso   1.00
H570   H     0.84934   0.88398   0.51765   0.00000  Uiso   1.00
H571   H     0.82515   0.92173   0.61854   0.00000  Uiso   1.00
H572   H     0.90691   0.93320   0.77248   0.00000  Uiso   1.00
H573   H     0.84543   0.89701   0.77730   0.00000  Uiso   1.00
H574   H     0.82486   0.93505   0.88035   0.00000  Uiso   1.00
H575   H     0.97659   0.95963   0.57042   0.00000  Uiso   1.00
H576   H     0.99859   0.95019   0.81401   0.00000  Uiso   1.00
C577   C     0.11003   0.07127   0.11344   0.00000  Uiso   1.00
C578   C     0.14429   0.08985   0.11416   0.00000  Uiso   1.00
C579   C     0.13015   0.04255   0.03704   0.00000  Uiso   1.00
C580   C     0.16616   0.05945   0.03932   0.00000  Uiso   1.00
C581   C     0.06236   0.03461   0.07256   0.00000  Uiso   1.00
C582   C     0.10115   0.05016   0.07402   0.00000  Uiso   1.00
C583   C     0.20457   0.11046   0.07733   0.00000  Uiso   1.00
C584   C     0.17197   0.08412   0.07783   0.00000  Uiso   1.00
C585   C     0.11232   0.06298   0.36514   0.00000  Uiso   1.00
C586   C     0.14735   0.08269   0.36603   0.00000  Uiso   1.00
C587   C     0.12722   0.04170   0.28254   0.00000  Uiso   1.00
C588   C     0.16406   0.05935   0.28577   0.00000  Uiso   1.00
C589   C     0.05976   0.02997   0.32034   0.00000  Uiso   1.00
C590   C     0.10024   0.04589   0.32132   0.00000  Uiso   1.00
C591   C     0.20422   0.10822   0.32510   0.00000  Uiso   1.00
C592   C     0.17364   0.08231   0.32617   0.00000  Uiso   1.00
C593   C     0.18784   0.19665   0.19800   0.00000  Uiso   1.00
C594   C     0.18730   0.19719   0.44245   0.00000  Uiso   1.00
C595   C     0.10531   0.07990   0.61444   0.00000  Uiso   1.00
C596   C     0.14112   0.09721   0.61748   0.00000  Uiso   1.00
C597   C     0.12441   0.05192   0.53560   0.00000  Uiso   1.00
C598   C     0.16118   0.06899   0.53811   0.00000  Uiso   1.00
C599   C     0.05828   0.03903   0.57404   0.00000  Uiso   1.00
C600   C     0.09588   0.05713   0.57457   0.00000  Uiso   1.00
C601   C     0.20184   0.11516   0.57575   0.00000  Uiso   1.00
C602   C     0.16831   0.09129   0.57862   0.00000  Uiso   1.00
C603   C     0.11554   0.05795   0.86334   0.00000  Uiso   1.00
C604   C     0.14885   0.07957   0.86513   0.00000  Uiso   1.00
C605   C     0.12631   0.04502   0.77641   0.00000  Uiso   1.00
C606   C     0.16021   0.06740   0.77698   0.00000  Uiso   1.00
C607   C     0.06696   0.02156   0.82048   0.00000  Uiso   1.00
C608   C     0.10329   0.04190   0.82002   0.00000  Uiso   1.00
C609   C     0.20325   0.11178   0.82121   0.00000  Uiso   1.00
C610   C     0.17001   0.08635   0.82087   0.00000  Uiso   1.00
C611   C     0.12268   0.39016   0.27852   0.00000  Uiso   1.00
C612   C     0.12201   0.21581   0.40580   0.00000  Uiso   1.00
C613   C     0.12302   0.39543   0.03390   0.00000  Uiso   1.00
C614   C     0.14622   0.24413   0.48343   0.00000  Uiso   1.00
C615   C     0.11295   0.26640   0.48290   0.00000  Uiso   1.00
C616   C     0.12478   0.21651   0.15562   0.00000  Uiso   1.00
C617   C     0.08981   0.23625   0.15537   0.00000  Uiso   1.00
C618   C     0.14934   0.21805   0.19946   0.00000  Uiso   1.00
C619   C     0.04872   0.28364   0.19427   0.00000  Uiso   1.00
C620   C     0.08210   0.25775   0.19624   0.00000  Uiso   1.00
C621   C     0.14027   0.23971   0.23953   0.00000  Uiso   1.00
C622   C     0.10778   0.25993   0.23808   0.00000  Uiso   1.00
C623   C     0.05951   0.37500   0.06928   0.00000  Uiso   1.00
C624   C     0.05749   0.37603   0.31361   0.00000  Uiso   1.00
C625   C     0.09073   0.24113   0.40345   0.00000  Uiso   1.00
C626   C     0.15155   0.21898   0.44475   0.00000  Uiso   1.00
C627   C     0.04894   0.28632   0.44371   0.00000  Uiso   1.00
C628   C     0.08544   0.26414   0.44324   0.00000  Uiso   1.00
C629   C     0.09328   0.39798   0.31400   0.00000  Uiso   1.00
C630   C     0.09563   0.39661   0.07264   0.00000  Uiso   1.00
C631   C     0.19324   0.20480   0.94162   0.00000  Uiso   1.00
C632   C     0.14898   0.24668   0.98391   0.00000  Uiso   1.00
C633   C     0.19282   0.20762   0.69254   0.00000  Uiso   1.00
C634   C     0.12944   0.22616   0.65720   0.00000  Uiso   1.00
C635   C     0.09632   0.24625   0.66142   0.00000  Uiso   1.00
C636   C     0.15786   0.23084   0.69291   0.00000  Uiso   1.00
C637   C     0.05566   0.29490   0.69634   0.00000  Uiso   1.00
C638   C     0.08916   0.27113   0.70040   0.00000  Uiso   1.00
C639   C     0.15424   0.25656   0.73078   0.00000  Uiso   1.00
C640   C     0.11931   0.27587   0.73723   0.00000  Uiso   1.00
C641   C     0.05370   0.37897   0.56472   0.00000  Uiso   1.00
C642   C     0.12894   0.21907   0.90524   0.00000  Uiso   1.00
C643   C     0.09320   0.23555   0.90814   0.00000  Uiso   1.00
C644   C     0.15850   0.22657   0.94171   0.00000  Uiso   1.00
C645   C     0.05086   0.28194   0.94621   0.00000  Uiso   1.00
C646   C     0.08698   0.26054   0.94498   0.00000  Uiso   1.00
C647   C     0.05937   0.37428   0.81906   0.00000  Uiso   1.00
C648   C     0.11479   0.26445   0.98414   0.00000  Uiso   1.00
C649   C     0.11602   0.39962   0.52161   0.00000  Uiso   1.00
C650   C     0.09309   0.39799   0.82111   0.00000  Uiso   1.00
C651   C     0.10101   0.59133   0.49002   0.00000  Uiso   1.00
C652   C     0.19911   0.45554   0.32030   0.00000  Uiso   1.00
C653   C     0.15668   0.41651   0.03519   0.00000  Uiso   1.00
C654   C     0.12405   0.55204   0.15666   0.00000  Uiso   1.00
C655   C     0.07916   0.59385   0.19947   0.00000  Uiso   1.00
C656   C     0.08971   0.57183   0.15790   0.00000  Uiso   1.00
C657   C     0.14077   0.43325   0.12167   0.00000  Uiso   1.00
C658   C     0.19160   0.53734   0.19484   0.00000  Uiso   1.00
C659   C     0.15268   0.55677   0.19479   0.00000  Uiso   1.00
C660   C     0.14209   0.57680   0.23611   0.00000  Uiso   1.00
C661   C     0.16451   0.43264   0.32264   0.00000  Uiso   1.00
C662   C     0.20043   0.46028   0.07972   0.00000  Uiso   1.00
C663   C     0.16705   0.43625   0.07935   0.00000  Uiso   1.00
C664   C     0.12222   0.55724   0.40351   0.00000  Uiso   1.00
C665   C     0.08714   0.57553   0.40640   0.00000  Uiso   1.00
C666   C     0.13799   0.43578   0.36147   0.00000  Uiso   1.00
C667   C     0.18534   0.53606   0.44260   0.00000  Uiso   1.00
C668   C     0.14744   0.55538   0.44541   0.00000  Uiso   1.00
C669   C     0.10139   0.41955   0.35530   0.00000  Uiso   1.00
C670   C     0.10641   0.41608   0.11593   0.00000  Uiso   1.00
C671   C     0.15632   0.40918   0.28185   0.00000  Uiso   1.00
C672   C     0.13542   0.57203   0.49041   0.00000  Uiso   1.00
C673   C     0.10701   0.59429   0.23964   0.00000  Uiso   1.00
C674   C     0.07733   0.59407   0.44976   0.00000  Uiso   1.00
C675   C     0.15095   0.41857   0.52625   0.00000  Uiso   1.00
C676   C     0.15981   0.43903   0.82493   0.00000  Uiso   1.00
C677   C     0.10262   0.41659   0.86496   0.00000  Uiso   1.00
C678   C     0.12959   0.55925   0.66166   0.00000  Uiso   1.00
C679   C     0.09683   0.58168   0.65949   0.00000  Uiso   1.00
C680   C     0.13552   0.43897   0.60724   0.00000  Uiso   1.00
C681   C     0.19203   0.53723   0.70338   0.00000  Uiso   1.00
C682   C     0.15683   0.56151   0.70288   0.00000  Uiso   1.00
C683   C     0.14733   0.58441   0.74378   0.00000  Uiso   1.00
C684   C     0.14204   0.57736   0.98547   0.00000  Uiso   1.00
C685   C     0.19660   0.46004   0.57005   0.00000  Uiso   1.00
C686   C     0.16128   0.43900   0.56959   0.00000  Uiso   1.00
C687   C     0.13193   0.56031   0.89783   0.00000  Uiso   1.00
C688   C     0.09713   0.58062   0.90077   0.00000  Uiso   1.00
C689   C     0.13479   0.43955   0.86648   0.00000  Uiso   1.00
C690   C     0.19294   0.54267   0.94279   0.00000  Uiso   1.00
C691   C     0.15492   0.55991   0.94115   0.00000  Uiso   1.00
C692   C     0.10805   0.59630   0.98686   0.00000  Uiso   1.00
C693   C     0.19787   0.45946   0.82362   0.00000  Uiso   1.00
C694   C     0.15114   0.41977   0.78210   0.00000  Uiso   1.00
C695   C     0.08921   0.40117   0.56209   0.00000  Uiso   1.00
C696   C     0.10176   0.41949   0.60648   0.00000  Uiso   1.00
C697   C     0.11709   0.40091   0.77814   0.00000  Uiso   1.00
C698   C     0.04582   0.61758   0.19611   0.00000  Uiso   1.00
C699   C     0.11316   0.73626   0.11042   0.00000  Uiso   1.00
C700   C     0.14522   0.75662   0.10902   0.00000  Uiso   1.00
C701   C     0.12377   0.71902   0.02390   0.00000  Uiso   1.00
C702   C     0.15749   0.74099   0.02439   0.00000  Uiso   1.00
C703   C     0.06265   0.69664   0.06628   0.00000  Uiso   1.00
C704   C     0.09929   0.71846   0.06605   0.00000  Uiso   1.00
C705   C     0.19815   0.78813   0.06406   0.00000  Uiso   1.00
C706   C     0.16717   0.76100   0.06720   0.00000  Uiso   1.00
C707   C     0.04543   0.61997   0.45037   0.00000  Uiso   1.00
C708   C     0.11200   0.73828   0.35900   0.00000  Uiso   1.00
C709   C     0.14584   0.75700   0.35831   0.00000  Uiso   1.00
C710   C     0.12532   0.71919   0.27372   0.00000  Uiso   1.00
C711   C     0.16143   0.73628   0.27519   0.00000  Uiso   1.00
C712   C     0.06355   0.70115   0.31654   0.00000  Uiso   1.00
C713   C     0.10034   0.72005   0.31744   0.00000  Uiso   1.00
C714   C     0.17111   0.75744   0.31600   0.00000  Uiso   1.00
C715   C     0.20322   0.78467   0.31286   0.00000  Uiso   1.00
C716   C     0.20306   0.78341   0.81426   0.00000  Uiso   1.00
C717   C     0.05302   0.62774   0.69653   0.00000  Uiso   1.00
C718   C     0.11084   0.74140   0.60443   0.00000  Uiso   1.00
C719   C     0.14618   0.75997   0.60517   0.00000  Uiso   1.00
C720   C     0.12839   0.71254   0.52750   0.00000  Uiso   1.00
C721   C     0.16446   0.72831   0.53056   0.00000  Uiso   1.00
C722   C     0.06146   0.70185   0.56647   0.00000  Uiso   1.00
C723   C     0.10132   0.71714   0.56654   0.00000  Uiso   1.00
C724   C     0.20690   0.77641   0.56553   0.00000  Uiso   1.00
C725   C     0.17170   0.75529   0.56576   0.00000  Uiso   1.00
C726   C     0.04970   0.62240   0.94553   0.00000  Uiso   1.00
C727   C     0.10974   0.73962   0.86050   0.00000  Uiso   1.00
C728   C     0.14500   0.75754   0.86011   0.00000  Uiso   1.00
C729   C     0.11857   0.72450   0.77358   0.00000  Uiso   1.00
C730   C     0.15513   0.74159   0.77380   0.00000  Uiso   1.00
C731   C     0.05693   0.70436   0.81909   0.00000  Uiso   1.00
C732   C     0.09456   0.72357   0.81750   0.00000  Uiso   1.00
C733   C     0.16844   0.75994   0.81606   0.00000  Uiso   1.00
C734   C     0.08849   0.60376   0.70007   0.00000  Uiso   1.00
C735   C     0.11382   0.60528   0.73969   0.00000  Uiso   1.00
C736   C     0.08536   0.60071   0.94337   0.00000  Uiso   1.00
C737   C     0.11371   0.93219   0.48482   0.00000  Uiso   1.00
C738   C     0.12790   0.89195   0.15986   0.00000  Uiso   1.00
C739   C     0.09113   0.90917   0.16678   0.00000  Uiso   1.00
C740   C     0.19458   0.87788   0.19450   0.00000  Uiso   1.00
C741   C     0.15664   0.89707   0.19573   0.00000  Uiso   1.00
C742   C     0.05031   0.95479   0.20469   0.00000  Uiso   1.00
C743   C     0.08340   0.92989   0.20808   0.00000  Uiso   1.00
C744   C     0.14886   0.91910   0.23738   0.00000  Uiso   1.00
C745   C     0.11078   0.93299   0.24484   0.00000  Uiso   1.00
C746   C     0.12200   0.88060   0.41182   0.00000  Uiso   1.00
C747   C     0.08871   0.90330   0.41393   0.00000  Uiso   1.00
C748   C     0.19027   0.86690   0.44513   0.00000  Uiso   1.00
C749   C     0.15249   0.88572   0.44733   0.00000  Uiso   1.00
C750   C     0.04792   0.95164   0.45240   0.00000  Uiso   1.00
C751   C     0.08325   0.92849   0.44991   0.00000  Uiso   1.00
C752   C     0.14914   0.91172   0.48362   0.00000  Uiso   1.00
C753   C     0.14227   0.90483   0.98954   0.00000  Uiso   1.00
C754   C     0.12368   0.88570   0.65076   0.00000  Uiso   1.00
C755   C     0.08859   0.90452   0.65425   0.00000  Uiso   1.00
C756   C     0.18846   0.86658   0.68905   0.00000  Uiso   1.00
C757   C     0.15273   0.88823   0.68847   0.00000  Uiso   1.00
C758   C     0.04781   0.95180   0.69713   0.00000  Uiso   1.00
C759   C     0.08188   0.92849   0.69433   0.00000  Uiso   1.00
C760   C     0.14520   0.90971   0.72908   0.00000  Uiso   1.00
C761   C     0.11050   0.92843   0.73254   0.00000  Uiso   1.00
C762   C     0.12647   0.88977   0.90218   0.00000  Uiso   1.00
C763   C     0.09157   0.90783   0.90704   0.00000  Uiso   1.00
C764   C     0.19017   0.86900   0.94097   0.00000  Uiso   1.00
C765   C     0.15298   0.88800   0.94359   0.00000  Uiso   1.00
C766   C     0.04735   0.94780   0.95428   0.00000  Uiso   1.00
C767   C     0.08007   0.92163   0.95385   0.00000  Uiso   1.00
C768   C     0.10587   0.92003   0.99501   0.00000  Uiso   1.00
C769   C     0.37378   0.11393   0.02677   0.00000  Uiso   1.00
C770   C     0.40937   0.09615   0.02748   0.00000  Uiso   1.00
C771   C     0.31298   0.13504   0.06757   0.00000  Uiso   1.00
C772   C     0.35006   0.11551   0.06917   0.00000  Uiso   1.00
C773   C     0.45623   0.05362   0.06914   0.00000  Uiso   1.00
C774   C     0.42102   0.07787   0.07088   0.00000  Uiso   1.00
C775   C     0.36299   0.09822   0.11160   0.00000  Uiso   1.00
C776   C     0.39746   0.08111   0.11537   0.00000  Uiso   1.00
C777   C     0.37510   0.11159   0.28259   0.00000  Uiso   1.00
C778   C     0.41100   0.09565   0.28434   0.00000  Uiso   1.00
C779   C     0.31269   0.12807   0.32194   0.00000  Uiso   1.00
C780   C     0.34911   0.10824   0.32406   0.00000  Uiso   1.00
C781   C     0.45529   0.05163   0.32255   0.00000  Uiso   1.00
C782   C     0.42282   0.07672   0.32499   0.00000  Uiso   1.00
C783   C     0.36168   0.09200   0.36809   0.00000  Uiso   1.00
C784   C     0.40021   0.07744   0.36976   0.00000  Uiso   1.00
C785   C     0.37873   0.11931   0.53316   0.00000  Uiso   1.00
C786   C     0.41646   0.10229   0.53463   0.00000  Uiso   1.00
C787   C     0.31202   0.13221   0.57169   0.00000  Uiso   1.00
C788   C     0.35129   0.11514   0.57215   0.00000  Uiso   1.00
C789   C     0.45955   0.05474   0.57086   0.00000  Uiso   1.00
C790   C     0.42615   0.07898   0.57461   0.00000  Uiso   1.00
C791   C     0.36052   0.09053   0.61007   0.00000  Uiso   1.00
C792   C     0.39803   0.07302   0.61106   0.00000  Uiso   1.00
C793   C     0.37368   0.11638   0.77414   0.00000  Uiso   1.00
C794   C     0.40748   0.09526   0.77535   0.00000  Uiso   1.00
C795   C     0.31161   0.13498   0.81587   0.00000  Uiso   1.00
C796   C     0.34838   0.11637   0.81460   0.00000  Uiso   1.00
C797   C     0.44796   0.04833   0.81752   0.00000  Uiso   1.00
C798   C     0.41597   0.07330   0.81711   0.00000  Uiso   1.00
C799   C     0.35563   0.09559   0.85638   0.00000  Uiso   1.00
C800   C     0.38721   0.07165   0.85488   0.00000  Uiso   1.00
C801   C     0.38941   0.25387   0.49048   0.00000  Uiso   1.00
C802   C     0.38776   0.25543   0.24249   0.00000  Uiso   1.00
C803   C     0.35370   0.23398   0.24471   0.00000  Uiso   1.00
C804   C     0.37244   0.27468   0.15722   0.00000  Uiso   1.00
C805   C     0.34017   0.25127   0.15815   0.00000  Uiso   1.00
C806   C     0.43548   0.29559   0.19925   0.00000  Uiso   1.00
C807   C     0.39847   0.27526   0.19829   0.00000  Uiso   1.00
C808   C     0.29496   0.21042   0.20090   0.00000  Uiso   1.00
C809   C     0.32934   0.23353   0.20357   0.00000  Uiso   1.00
C810   C     0.44441   0.37092   0.06851   0.00000  Uiso   1.00
C811   C     0.36988   0.27784   0.40884   0.00000  Uiso   1.00
C812   C     0.33746   0.25514   0.40921   0.00000  Uiso   1.00
C813   C     0.43432   0.29514   0.44649   0.00000  Uiso   1.00
C814   C     0.39687   0.27455   0.44935   0.00000  Uiso   1.00
C815   C     0.29577   0.21017   0.45053   0.00000  Uiso   1.00
C816   C     0.32934   0.23481   0.44926   0.00000  Uiso   1.00
C817   C     0.44874   0.37898   0.32472   0.00000  Uiso   1.00
C818   C     0.35369   0.23644   0.49252   0.00000  Uiso   1.00
C819   C     0.41258   0.39884   0.06893   0.00000  Uiso   1.00
C820   C     0.38801   0.26131   0.73630   0.00000  Uiso   1.00
C821   C     0.35158   0.24205   0.73839   0.00000  Uiso   1.00
C822   C     0.37051   0.28117   0.65283   0.00000  Uiso   1.00
C823   C     0.33597   0.26191   0.65719   0.00000  Uiso   1.00
C824   C     0.43542   0.30025   0.69221   0.00000  Uiso   1.00
C825   C     0.39768   0.27992   0.69285   0.00000  Uiso   1.00
C826   C     0.29631   0.21460   0.69769   0.00000  Uiso   1.00
C827   C     0.32694   0.24190   0.69931   0.00000  Uiso   1.00
C828   C     0.44863   0.37842   0.57092   0.00000  Uiso   1.00
C829   C     0.37245   0.27967   0.91067   0.00000  Uiso   1.00
C830   C     0.33829   0.25872   0.91418   0.00000  Uiso   1.00
C831   C     0.43838   0.29614   0.94893   0.00000  Uiso   1.00
C832   C     0.40041   0.27712   0.94900   0.00000  Uiso   1.00
C833   C     0.33002   0.23461   0.95354   0.00000  Uiso   1.00
C834   C     0.44897   0.37476   0.82663   0.00000  Uiso   1.00
C835   C     0.35898   0.23305   0.99132   0.00000  Uiso   1.00
C836   C     0.29768   0.20803   0.95042   0.00000  Uiso   1.00
C837   C     0.39243   0.25306   0.98757   0.00000  Uiso   1.00
C838   C     0.41317   0.39804   0.82693   0.00000  Uiso   1.00
C839   C     0.38794   0.39906   0.86883   0.00000  Uiso   1.00
C840   C     0.29199   0.55669   0.44624   0.00000  Uiso   1.00
C841   C     0.35194   0.58332   0.48634   0.00000  Uiso   1.00
C842   C     0.41618   0.40538   0.32576   0.00000  Uiso   1.00
C843   C     0.39388   0.40785   0.37024   0.00000  Uiso   1.00
C844   C     0.32548   0.58269   0.44487   0.00000  Uiso   1.00
C845   C     0.35761   0.42585   0.36617   0.00000  Uiso   1.00
C846   C     0.36812   0.43970   0.02473   0.00000  Uiso   1.00
C847   C     0.40064   0.41654   0.02551   0.00000  Uiso   1.00
C848   C     0.35393   0.58508   0.24386   0.00000  Uiso   1.00
C849   C     0.30814   0.46302   0.06753   0.00000  Uiso   1.00
C850   C     0.34268   0.44037   0.06663   0.00000  Uiso   1.00
C851   C     0.35401   0.42295   0.11003   0.00000  Uiso   1.00
C852   C     0.29750   0.55366   0.20016   0.00000  Uiso   1.00
C853   C     0.33024   0.57998   0.20041   0.00000  Uiso   1.00
C854   C     0.36902   0.44185   0.28140   0.00000  Uiso   1.00
C855   C     0.40438   0.42444   0.28248   0.00000  Uiso   1.00
C856   C     0.30933   0.46394   0.32635   0.00000  Uiso   1.00
C857   C     0.34588   0.44205   0.32411   0.00000  Uiso   1.00
C858   C     0.33936   0.59848   0.15551   0.00000  Uiso   1.00
C859   C     0.38839   0.40270   0.11046   0.00000  Uiso   1.00
C860   C     0.35475   0.42214   0.61264   0.00000  Uiso   1.00
C861   C     0.36023   0.57685   0.99035   0.00000  Uiso   1.00
C862   C     0.30131   0.55041   0.94917   0.00000  Uiso   1.00
C863   C     0.39479   0.59235   0.73987   0.00000  Uiso   1.00
C864   C     0.33446   0.57441   0.94922   0.00000  Uiso   1.00
C865   C     0.37335   0.44551   0.53196   0.00000  Uiso   1.00
C866   C     0.40661   0.42491   0.53377   0.00000  Uiso   1.00
C867   C     0.36022   0.57283   0.73961   0.00000  Uiso   1.00
C868   C     0.31023   0.46689   0.57318   0.00000  Uiso   1.00
C869   C     0.34752   0.44575   0.57297   0.00000  Uiso   1.00
C870   C     0.38731   0.40203   0.61272   0.00000  Uiso   1.00
C871   C     0.35291   0.41736   0.86658   0.00000  Uiso   1.00
C872   C     0.29960   0.55178   0.69916   0.00000  Uiso   1.00
C873   C     0.33453   0.57366   0.69978   0.00000  Uiso   1.00
C874   C     0.37048   0.44110   0.78515   0.00000  Uiso   1.00
C875   C     0.40387   0.42095   0.78679   0.00000  Uiso   1.00
C876   C     0.30566   0.46014   0.82601   0.00000  Uiso   1.00
C877   C     0.34359   0.43912   0.82496   0.00000  Uiso   1.00
C878   C     0.39408   0.59455   0.98598   0.00000  Uiso   1.00
C879   C     0.41353   0.40206   0.57296   0.00000  Uiso   1.00
C880   C     0.34308   0.59301   0.90718   0.00000  Uiso   1.00
C881   C     0.34242   0.59693   0.65975   0.00000  Uiso   1.00
C882   C     0.39644   0.62198   0.44275   0.00000  Uiso   1.00
C883   C     0.36973   0.62323   0.40323   0.00000  Uiso   1.00
C884   C     0.40112   0.61605   0.18952   0.00000  Uiso   1.00
C885   C     0.44135   0.63320   0.18716   0.00000  Uiso   1.00
C886   C     0.37473   0.78481   0.02543   0.00000  Uiso   1.00
C887   C     0.40704   0.76321   0.02471   0.00000  Uiso   1.00
C888   C     0.34877   0.78544   0.06691   0.00000  Uiso   1.00
C889   C     0.45073   0.71696   0.06568   0.00000  Uiso   1.00
C890   C     0.41702   0.74227   0.06722   0.00000  Uiso   1.00
C891   C     0.35783   0.76379   0.10812   0.00000  Uiso   1.00
C892   C     0.39282   0.74433   0.11101   0.00000  Uiso   1.00
C893   C     0.43489   0.64061   0.44067   0.00000  Uiso   1.00
C894   C     0.37622   0.77996   0.27430   0.00000  Uiso   1.00
C895   C     0.40591   0.75429   0.27205   0.00000  Uiso   1.00
C896   C     0.35095   0.78256   0.31609   0.00000  Uiso   1.00
C897   C     0.45186   0.71341   0.31189   0.00000  Uiso   1.00
C898   C     0.41769   0.73752   0.31488   0.00000  Uiso   1.00
C899   C     0.36140   0.76201   0.35851   0.00000  Uiso   1.00
C900   C     0.39634   0.74188   0.36051   0.00000  Uiso   1.00
C901   C     0.37334   0.61731   0.15176   0.00000  Uiso   1.00
C902   C     0.33432   0.60463   0.40392   0.00000  Uiso   1.00
C903   C     0.38694   0.60121   0.48536   0.00000  Uiso   1.00
C904   C     0.39000   0.60332   0.23657   0.00000  Uiso   1.00
C905   C     0.40351   0.61365   0.94303   0.00000  Uiso   1.00
C906   C     0.40329   0.61241   0.69593   0.00000  Uiso   1.00
C907   C     0.37753   0.61455   0.65637   0.00000  Uiso   1.00
C908   C     0.44046   0.63231   0.69423   0.00000  Uiso   1.00
C909   C     0.37614   0.78296   0.52702   0.00000  Uiso   1.00
C910   C     0.40847   0.76250   0.52573   0.00000  Uiso   1.00
C911   C     0.34857   0.78101   0.56823   0.00000  Uiso   1.00
C912   C     0.44841   0.71323   0.56486   0.00000  Uiso   1.00
C913   C     0.41592   0.73885   0.56556   0.00000  Uiso   1.00
C914   C     0.35569   0.75640   0.60595   0.00000  Uiso   1.00
C915   C     0.39015   0.73820   0.60711   0.00000  Uiso   1.00
C916   C     0.44083   0.63272   0.94236   0.00000  Uiso   1.00
C917   C     0.37639   0.77814   0.77900   0.00000  Uiso   1.00
C918   C     0.41094   0.75894   0.78047   0.00000  Uiso   1.00
C919   C     0.34861   0.77674   0.81792   0.00000  Uiso   1.00
C920   C     0.45471   0.71530   0.82341   0.00000  Uiso   1.00
C921   C     0.41756   0.73723   0.82215   0.00000  Uiso   1.00
C922   C     0.35669   0.75789   0.86103   0.00000  Uiso   1.00
C923   C     0.39076   0.73732   0.86421   0.00000  Uiso   1.00
C924   C     0.37682   0.61280   0.90275   0.00000  Uiso   1.00
C925   C     0.31195   0.79746   0.81447   0.00000  Uiso   1.00
C926   C     0.31053   0.79896   0.56528   0.00000  Uiso   1.00
C927   C     0.39779   0.92400   0.49040   0.00000  Uiso   1.00
C928   C     0.39379   0.92359   0.23266   0.00000  Uiso   1.00
C929   C     0.35967   0.90465   0.23407   0.00000  Uiso   1.00
C930   C     0.37774   0.94590   0.15084   0.00000  Uiso   1.00
C931   C     0.34363   0.92572   0.15261   0.00000  Uiso   1.00
C932   C     0.43992   0.96668   0.19225   0.00000  Uiso   1.00
C933   C     0.40249   0.94486   0.19156   0.00000  Uiso   1.00
C934   C     0.29860   0.88356   0.19213   0.00000  Uiso   1.00
C935   C     0.33355   0.90492   0.19365   0.00000  Uiso   1.00
C936   C     0.37775   0.94441   0.40667   0.00000  Uiso   1.00
C937   C     0.34586   0.92336   0.40940   0.00000  Uiso   1.00
C938   C     0.44324   0.96581   0.44613   0.00000  Uiso   1.00
C939   C     0.40634   0.94413   0.44448   0.00000  Uiso   1.00
C940   C     0.30294   0.87723   0.45026   0.00000  Uiso   1.00
C941   C     0.33759   0.90151   0.45120   0.00000  Uiso   1.00
C942   C     0.36590   0.90136   0.49055   0.00000  Uiso   1.00
C943   C     0.31217   0.80013   0.31512   0.00000  Uiso   1.00
C944   C     0.31194   0.80479   0.06458   0.00000  Uiso   1.00
C945   C     0.39243   0.92241   0.98056   0.00000  Uiso   1.00
C946   C     0.35564   0.90789   0.98429   0.00000  Uiso   1.00
C947   C     0.39526   0.91909   0.72801   0.00000  Uiso   1.00
C948   C     0.36028   0.89928   0.72698   0.00000  Uiso   1.00
C949   C     0.37628   0.94241   0.64619   0.00000  Uiso   1.00
C950   C     0.34441   0.92021   0.64553   0.00000  Uiso   1.00
C951   C     0.43973   0.96182   0.68628   0.00000  Uiso   1.00
C952   C     0.40340   0.94086   0.68715   0.00000  Uiso   1.00
C953   C     0.30016   0.87563   0.68665   0.00000  Uiso   1.00
C954   C     0.33493   0.89944   0.68571   0.00000  Uiso   1.00
C955   C     0.38115   0.94287   0.89675   0.00000  Uiso   1.00
C956   C     0.34702   0.92394   0.89716   0.00000  Uiso   1.00
C957   C     0.44169   0.96080   0.94321   0.00000  Uiso   1.00
C958   C     0.40528   0.93964   0.93832   0.00000  Uiso   1.00
C959   C     0.29887   0.88253   0.93924   0.00000  Uiso   1.00
C960   C     0.33317   0.90709   0.94102   0.00000  Uiso   1.00
C961   C     0.60424   0.08103   0.10514   0.00000  Uiso   1.00
C962   C     0.64055   0.09802   0.10961   0.00000  Uiso   1.00
C963   C     0.62234   0.05812   0.02539   0.00000  Uiso   1.00
C964   C     0.65420   0.07965   0.02465   0.00000  Uiso   1.00
C965   C     0.55857   0.03852   0.06547   0.00000  Uiso   1.00
C966   C     0.59439   0.06087   0.06383   0.00000  Uiso   1.00
C967   C     0.70069   0.12029   0.06790   0.00000  Uiso   1.00
C968   C     0.66549   0.09701   0.06843   0.00000  Uiso   1.00
C969   C     0.61136   0.06675   0.35934   0.00000  Uiso   1.00
C970   C     0.64630   0.08416   0.36254   0.00000  Uiso   1.00
C971   C     0.62610   0.04902   0.27090   0.00000  Uiso   1.00
C972   C     0.66180   0.06565   0.27677   0.00000  Uiso   1.00
C973   C     0.56244   0.03103   0.31305   0.00000  Uiso   1.00
C974   C     0.59955   0.04978   0.31367   0.00000  Uiso   1.00
C975   C     0.70304   0.11090   0.32034   0.00000  Uiso   1.00
C976   C     0.67117   0.08451   0.32043   0.00000  Uiso   1.00
C977   C     0.60535   0.08120   0.61202   0.00000  Uiso   1.00
C978   C     0.64105   0.09941   0.61120   0.00000  Uiso   1.00
C979   C     0.62566   0.05131   0.53369   0.00000  Uiso   1.00
C980   C     0.65955   0.06989   0.53267   0.00000  Uiso   1.00
C981   C     0.56158   0.03659   0.57175   0.00000  Uiso   1.00
C982   C     0.59770   0.05702   0.57180   0.00000  Uiso   1.00
C983   C     0.70236   0.11826   0.57006   0.00000  Uiso   1.00
C984   C     0.66681   0.09623   0.57117   0.00000  Uiso   1.00
C985   C     0.60686   0.07912   0.85860   0.00000  Uiso   1.00
C986   C     0.64334   0.09381   0.86322   0.00000  Uiso   1.00
C987   C     0.62173   0.05779   0.77551   0.00000  Uiso   1.00
C988   C     0.65800   0.07211   0.78268   0.00000  Uiso   1.00
C989   C     0.55952   0.03895   0.81481   0.00000  Uiso   1.00
C990   C     0.59591   0.05982   0.81460   0.00000  Uiso   1.00
C991   C     0.70324   0.11528   0.82174   0.00000  Uiso   1.00
C992   C     0.66998   0.09113   0.82490   0.00000  Uiso   1.00
C993   C     0.59303   0.39072   0.32195   0.00000  Uiso   1.00
C994   C     0.63965   0.24049   0.48345   0.00000  Uiso   1.00
C995   C     0.55440   0.37162   0.32006   0.00000  Uiso   1.00
C996   C     0.62431   0.21916   0.15091   0.00000  Uiso   1.00
C997   C     0.58824   0.23571   0.15207   0.00000  Uiso   1.00
C998   C     0.60371   0.25577   0.48843   0.00000  Uiso   1.00
C999   C     0.64900   0.21884   0.19357   0.00000  Uiso   1.00
C1000  C     0.54290   0.27942   0.19455   0.00000  Uiso   1.00
C1001  C     0.57806   0.25557   0.19528   0.00000  Uiso   1.00
C1002  C     0.63851   0.24072   0.23397   0.00000  Uiso   1.00
C1003  C     0.60399   0.25853   0.23476   0.00000  Uiso   1.00
C1004  C     0.55516   0.36954   0.07048   0.00000  Uiso   1.00
C1005  C     0.62196   0.21498   0.40545   0.00000  Uiso   1.00
C1006  C     0.58688   0.23271   0.40735   0.00000  Uiso   1.00
C1007  C     0.65034   0.22050   0.44163   0.00000  Uiso   1.00
C1008  C     0.54245   0.27879   0.44899   0.00000  Uiso   1.00
C1009  C     0.57743   0.25423   0.44925   0.00000  Uiso   1.00
C1010  C     0.62016   0.38569   0.28349   0.00000  Uiso   1.00
C1011  C     0.68845   0.20288   0.44220   0.00000  Uiso   1.00
C1012  C     0.61570   0.38986   0.02965   0.00000  Uiso   1.00
C1013  C     0.68788   0.20455   0.19484   0.00000  Uiso   1.00
C1014  C     0.59174   0.39025   0.07100   0.00000  Uiso   1.00
C1015  C     0.64260   0.24062   0.97791   0.00000  Uiso   1.00
C1016  C     0.59266   0.39381   0.56493   0.00000  Uiso   1.00
C1017  C     0.60558   0.25325   0.98352   0.00000  Uiso   1.00
C1018  C     0.62327   0.38615   0.53133   0.00000  Uiso   1.00
C1019  C     0.63370   0.22757   0.65611   0.00000  Uiso   1.00
C1020  C     0.59817   0.24409   0.66005   0.00000  Uiso   1.00
C1021  C     0.55538   0.37357   0.81710   0.00000  Uiso   1.00
C1022  C     0.65973   0.22863   0.69799   0.00000  Uiso   1.00
C1023  C     0.55306   0.28884   0.69925   0.00000  Uiso   1.00
C1024  C     0.58870   0.26628   0.69982   0.00000  Uiso   1.00
C1025  C     0.64787   0.24634   0.74141   0.00000  Uiso   1.00
C1026  C     0.61206   0.26438   0.74297   0.00000  Uiso   1.00
C1027  C     0.55617   0.37243   0.56407   0.00000  Uiso   1.00
C1028  C     0.62537   0.21699   0.89566   0.00000  Uiso   1.00
C1029  C     0.58957   0.23220   0.90135   0.00000  Uiso   1.00
C1030  C     0.65177   0.21957   0.93731   0.00000  Uiso   1.00
C1031  C     0.54772   0.27696   0.94398   0.00000  Uiso   1.00
C1032  C     0.57985   0.25117   0.94467   0.00000  Uiso   1.00
C1033  C     0.59232   0.39443   0.81518   0.00000  Uiso   1.00
C1034  C     0.61966   0.39165   0.77451   0.00000  Uiso   1.00
C1035  C     0.69679   0.20946   0.69533   0.00000  Uiso   1.00
C1036  C     0.69165   0.20276   0.93553   0.00000  Uiso   1.00
C1037  C     0.63905   0.57464   0.47879   0.00000  Uiso   1.00
C1038  C     0.60422   0.59233   0.48159   0.00000  Uiso   1.00
C1039  C     0.60924   0.59279   0.23171   0.00000  Uiso   1.00
C1040  C     0.65112   0.40974   0.02803   0.00000  Uiso   1.00
C1041  C     0.62782   0.55365   0.14691   0.00000  Uiso   1.00
C1042  C     0.65476   0.40717   0.28379   0.00000  Uiso   1.00
C1043  C     0.59322   0.57331   0.14688   0.00000  Uiso   1.00
C1044  C     0.63785   0.43177   0.11036   0.00000  Uiso   1.00
C1045  C     0.69036   0.53344   0.18922   0.00000  Uiso   1.00
C1046  C     0.65225   0.55387   0.18749   0.00000  Uiso   1.00
C1047  C     0.60065   0.41480   0.11106   0.00000  Uiso   1.00
C1048  C     0.64496   0.57431   0.22872   0.00000  Uiso   1.00
C1049  C     0.69610   0.45377   0.06542   0.00000  Uiso   1.00
C1050  C     0.66145   0.43032   0.06876   0.00000  Uiso   1.00
C1051  C     0.62590   0.55348   0.39781   0.00000  Uiso   1.00
C1052  C     0.59067   0.57352   0.39652   0.00000  Uiso   1.00
C1053  C     0.63354   0.43353   0.36358   0.00000  Uiso   1.00
C1054  C     0.68892   0.53656   0.43887   0.00000  Uiso   1.00
C1055  C     0.64960   0.55288   0.43822   0.00000  Uiso   1.00
C1056  C     0.66070   0.43162   0.32357   0.00000  Uiso   1.00
C1057  C     0.69447   0.45539   0.31956   0.00000  Uiso   1.00
C1058  C     0.58378   0.59401   0.18930   0.00000  Uiso   1.00
C1059  C     0.57978   0.59307   0.43852   0.00000  Uiso   1.00
C1060  C     0.60007   0.41329   0.36242   0.00000  Uiso   1.00
C1061  C     0.65731   0.40703   0.53265   0.00000  Uiso   1.00
C1062  C     0.60826   0.59437   0.73954   0.00000  Uiso   1.00
C1063  C     0.62822   0.55638   0.65373   0.00000  Uiso   1.00
C1064  C     0.59507   0.57677   0.65412   0.00000  Uiso   1.00
C1065  C     0.63175   0.43788   0.60554   0.00000  Uiso   1.00
C1066  C     0.69137   0.53466   0.69465   0.00000  Uiso   1.00
C1067  C     0.65210   0.55430   0.69571   0.00000  Uiso   1.00
C1068  C     0.58243   0.59181   0.94267   0.00000  Uiso   1.00
C1069  C     0.64304   0.57565   0.73774   0.00000  Uiso   1.00
C1070  C     0.60965   0.59382   0.97971   0.00000  Uiso   1.00
C1071  C     0.69618   0.45484   0.56889   0.00000  Uiso   1.00
C1072  C     0.66167   0.43167   0.57199   0.00000  Uiso   1.00
C1073  C     0.62370   0.54693   0.90137   0.00000  Uiso   1.00
C1074  C     0.64413   0.57280   0.98033   0.00000  Uiso   1.00
C1075  C     0.58927   0.56940   0.90382   0.00000  Uiso   1.00
C1076  C     0.63908   0.43059   0.86042   0.00000  Uiso   1.00
C1077  C     0.68776   0.53026   0.93652   0.00000  Uiso   1.00
C1078  C     0.65322   0.55101   0.93763   0.00000  Uiso   1.00
C1079  C     0.60380   0.41269   0.85926   0.00000  Uiso   1.00
C1080  C     0.69847   0.45436   0.81866   0.00000  Uiso   1.00
C1081  C     0.66421   0.43053   0.81934   0.00000  Uiso   1.00
C1082  C     0.58375   0.59694   0.69518   0.00000  Uiso   1.00
C1083  C     0.59715   0.42003   0.59973   0.00000  Uiso   1.00
C1084  C     0.65648   0.40941   0.77603   0.00000  Uiso   1.00
C1085  C     0.70811   0.77838   0.32088   0.00000  Uiso   1.00
C1086  C     0.55102   0.61901   0.18749   0.00000  Uiso   1.00
C1087  C     0.61054   0.74459   0.10363   0.00000  Uiso   1.00
C1088  C     0.64392   0.76474   0.10457   0.00000  Uiso   1.00
C1089  C     0.62440   0.72150   0.02240   0.00000  Uiso   1.00
C1090  C     0.65913   0.74191   0.02190   0.00000  Uiso   1.00
C1091  C     0.56195   0.70489   0.06263   0.00000  Uiso   1.00
C1092  C     0.59906   0.72490   0.06165   0.00000  Uiso   1.00
C1093  C     0.66681   0.76484   0.06421   0.00000  Uiso   1.00
C1094  C     0.54573   0.61574   0.43984   0.00000  Uiso   1.00
C1095  C     0.61216   0.73910   0.35731   0.00000  Uiso   1.00
C1096  C     0.64767   0.75577   0.36162   0.00000  Uiso   1.00
C1097  C     0.62715   0.71919   0.27329   0.00000  Uiso   1.00
C1098  C     0.66334   0.73639   0.27700   0.00000  Uiso   1.00
C1099  C     0.56280   0.70250   0.31564   0.00000  Uiso   1.00
C1100  C     0.60082   0.72167   0.31350   0.00000  Uiso   1.00
C1101  C     0.67346   0.75632   0.32105   0.00000  Uiso   1.00
C1102  C     0.70150   0.78700   0.06404   0.00000  Uiso   1.00
C1103  C     0.69921   0.79175   0.81869   0.00000  Uiso   1.00
C1104  C     0.70115   0.78693   0.57136   0.00000  Uiso   1.00
C1105  C     0.54936   0.62104   0.69316   0.00000  Uiso   1.00
C1106  C     0.60591   0.74755   0.61321   0.00000  Uiso   1.00
C1107  C     0.64205   0.76267   0.61725   0.00000  Uiso   1.00
C1108  C     0.62143   0.72231   0.53314   0.00000  Uiso   1.00
C1109  C     0.65739   0.74211   0.53384   0.00000  Uiso   1.00
C1110  C     0.55809   0.70714   0.56651   0.00000  Uiso   1.00
C1111  C     0.59387   0.72782   0.56941   0.00000  Uiso   1.00
C1112  C     0.66735   0.76216   0.57601   0.00000  Uiso   1.00
C1113  C     0.54845   0.61501   0.94378   0.00000  Uiso   1.00
C1114  C     0.60422   0.74871   0.85660   0.00000  Uiso   1.00
C1115  C     0.63907   0.76762   0.85947   0.00000  Uiso   1.00
C1116  C     0.62418   0.72295   0.77841   0.00000  Uiso   1.00
C1117  C     0.65953   0.74287   0.78150   0.00000  Uiso   1.00
C1118  C     0.55986   0.70607   0.81618   0.00000  Uiso   1.00
C1119  C     0.59580   0.72633   0.81623   0.00000  Uiso   1.00
C1120  C     0.66622   0.76669   0.81968   0.00000  Uiso   1.00
C1121  C     0.63120   0.89120   0.14633   0.00000  Uiso   1.00
C1122  C     0.59736   0.91236   0.14677   0.00000  Uiso   1.00
C1123  C     0.68978   0.86747   0.19257   0.00000  Uiso   1.00
C1124  C     0.65271   0.88639   0.19145   0.00000  Uiso   1.00
C1125  C     0.55201   0.95763   0.19082   0.00000  Uiso   1.00
C1126  C     0.58533   0.93193   0.19070   0.00000  Uiso   1.00
C1127  C     0.63979   0.90502   0.23474   0.00000  Uiso   1.00
C1128  C     0.60732   0.92754   0.23425   0.00000  Uiso   1.00
C1129  C     0.62210   0.88318   0.41053   0.00000  Uiso   1.00
C1130  C     0.58870   0.90403   0.41175   0.00000  Uiso   1.00
C1131  C     0.68938   0.86733   0.44135   0.00000  Uiso   1.00
C1132  C     0.65149   0.88802   0.44545   0.00000  Uiso   1.00
C1133  C     0.55138   0.95355   0.44745   0.00000  Uiso   1.00
C1134  C     0.58413   0.92820   0.45029   0.00000  Uiso   1.00
C1135  C     0.64557   0.91056   0.48418   0.00000  Uiso   1.00
C1136  C     0.61256   0.93265   0.48513   0.00000  Uiso   1.00
C1137  C     0.64591   0.91523   0.98661   0.00000  Uiso   1.00
C1138  C     0.62680   0.88759   0.65265   0.00000  Uiso   1.00
C1139  C     0.59222   0.90630   0.65427   0.00000  Uiso   1.00
C1140  C     0.69110   0.86951   0.69019   0.00000  Uiso   1.00
C1141  C     0.65610   0.89217   0.69058   0.00000  Uiso   1.00
C1142  C     0.54787   0.95252   0.69501   0.00000  Uiso   1.00
C1143  C     0.58344   0.92947   0.69442   0.00000  Uiso   1.00
C1144  C     0.64606   0.91229   0.73188   0.00000  Uiso   1.00
C1145  C     0.61021   0.93163   0.73401   0.00000  Uiso   1.00
C1146  C     0.63119   0.89542   0.90212   0.00000  Uiso   1.00
C1147  C     0.59601   0.91427   0.90313   0.00000  Uiso   1.00
C1148  C     0.69415   0.87874   0.94168   0.00000  Uiso   1.00
C1149  C     0.65815   0.89787   0.94136   0.00000  Uiso   1.00
C1150  C     0.55094   0.95582   0.94363   0.00000  Uiso   1.00
C1151  C     0.58611   0.93321   0.94531   0.00000  Uiso   1.00
C1152  C     0.61006   0.93055   0.98938   0.00000  Uiso   1.00
C1153  C     0.87448   0.11132   0.02567   0.00000  Uiso   1.00
C1154  C     0.91038   0.09289   0.03007   0.00000  Uiso   1.00
C1155  C     0.81129   0.13288   0.06890   0.00000  Uiso   1.00
C1156  C     0.84831   0.11208   0.06925   0.00000  Uiso   1.00
C1157  C     0.95516   0.05265   0.07426   0.00000  Uiso   1.00
C1158  C     0.92120   0.07628   0.07410   0.00000  Uiso   1.00
C1159  C     0.85747   0.09042   0.10962   0.00000  Uiso   1.00
C1160  C     0.89498   0.07648   0.11474   0.00000  Uiso   1.00
C1161  C     0.87155   0.11306   0.28190   0.00000  Uiso   1.00
C1162  C     0.90734   0.09339   0.28378   0.00000  Uiso   1.00
C1163  C     0.80574   0.13183   0.31812   0.00000  Uiso   1.00
C1164  C     0.84286   0.11101   0.31979   0.00000  Uiso   1.00
C1165  C     0.94667   0.04584   0.32613   0.00000  Uiso   1.00
C1166  C     0.91297   0.07228   0.32466   0.00000  Uiso   1.00
C1167  C     0.85259   0.09035   0.36311   0.00000  Uiso   1.00
C1168  C     0.88732   0.07273   0.36655   0.00000  Uiso   1.00
C1169  C     0.87048   0.10709   0.53137   0.00000  Uiso   1.00
C1170  C     0.90596   0.08752   0.53426   0.00000  Uiso   1.00
C1171  C     0.80767   0.12742   0.56680   0.00000  Uiso   1.00
C1172  C     0.84183   0.10455   0.56853   0.00000  Uiso   1.00
C1173  C     0.94850   0.04615   0.57809   0.00000  Uiso   1.00
C1174  C     0.91247   0.06728   0.57685   0.00000  Uiso   1.00
C1175  C     0.85038   0.08460   0.61087   0.00000  Uiso   1.00
C1176  C     0.88554   0.06707   0.61516   0.00000  Uiso   1.00
C1177  C     0.87807   0.10776   0.78290   0.00000  Uiso   1.00
C1178  C     0.91202   0.08938   0.78728   0.00000  Uiso   1.00
C1179  C     0.81103   0.12458   0.81731   0.00000  Uiso   1.00
C1180  C     0.85097   0.10702   0.82128   0.00000  Uiso   1.00
C1181  C     0.95723   0.04833   0.83070   0.00000  Uiso   1.00
C1182  C     0.92216   0.07020   0.82961   0.00000  Uiso   1.00
C1183  C     0.85993   0.08948   0.86639   0.00000  Uiso   1.00
C1184  C     0.89713   0.07273   0.87135   0.00000  Uiso   1.00
C1185  C     0.79820   0.21143   0.44104   0.00000  Uiso   1.00
C1186  C     0.89215   0.25664   0.23510   0.00000  Uiso   1.00
C1187  C     0.85652   0.23757   0.23688   0.00000  Uiso   1.00
C1188  C     0.87389   0.28152   0.15421   0.00000  Uiso   1.00
C1189  C     0.83987   0.26082   0.15716   0.00000  Uiso   1.00
C1190  C     0.93809   0.30014   0.19130   0.00000  Uiso   1.00
C1191  C     0.90222   0.27896   0.19240   0.00000  Uiso   1.00
C1192  C     0.83226   0.23666   0.19658   0.00000  Uiso   1.00
C1193  C     0.94917   0.37562   0.06139   0.00000  Uiso   1.00
C1194  C     0.87617   0.27773   0.39831   0.00000  Uiso   1.00
C1195  C     0.84229   0.25802   0.40350   0.00000  Uiso   1.00
C1196  C     0.94081   0.29835   0.43671   0.00000  Uiso   1.00
C1197  C     0.90488   0.27606   0.43900   0.00000  Uiso   1.00
C1198  C     0.79762   0.21395   0.19634   0.00000  Uiso   1.00
C1199  C     0.83446   0.23458   0.44236   0.00000  Uiso   1.00
C1200  C     0.94859   0.37926   0.31962   0.00000  Uiso   1.00
C1201  C     0.89606   0.25280   0.47811   0.00000  Uiso   1.00
C1202  C     0.85975   0.23599   0.48262   0.00000  Uiso   1.00
C1203  C     0.89104   0.39775   0.10106   0.00000  Uiso   1.00
C1204  C     0.91436   0.39881   0.06030   0.00000  Uiso   1.00
C1205  C     0.90393   0.25254   0.73289   0.00000  Uiso   1.00
C1206  C     0.87224   0.23001   0.73527   0.00000  Uiso   1.00
C1207  C     0.88584   0.27441   0.65068   0.00000  Uiso   1.00
C1208  C     0.85494   0.24951   0.65199   0.00000  Uiso   1.00
C1209  C     0.94675   0.29669   0.69284   0.00000  Uiso   1.00
C1210  C     0.91127   0.27443   0.69269   0.00000  Uiso   1.00
C1211  C     0.84579   0.22926   0.69476   0.00000  Uiso   1.00
C1212  C     0.94610   0.37521   0.56667   0.00000  Uiso   1.00
C1213  C     0.80917   0.20939   0.69517   0.00000  Uiso   1.00
C1214  C     0.88018   0.27831   0.89872   0.00000  Uiso   1.00
C1215  C     0.84590   0.25856   0.90171   0.00000  Uiso   1.00
C1216  C     0.94390   0.29876   0.94032   0.00000  Uiso   1.00
C1217  C     0.90616   0.28028   0.94087   0.00000  Uiso   1.00
C1218  C     0.80339   0.21397   0.94355   0.00000  Uiso   1.00
C1219  C     0.83688   0.23683   0.94506   0.00000  Uiso   1.00
C1220  C     0.95228   0.38106   0.82290   0.00000  Uiso   1.00
C1221  C     0.89514   0.26121   0.98499   0.00000  Uiso   1.00
C1222  C     0.86413   0.23768   0.98421   0.00000  Uiso   1.00
C1223  C     0.88803   0.39946   0.85790   0.00000  Uiso   1.00
C1224  C     0.90858   0.39528   0.56575   0.00000  Uiso   1.00
C1225  C     0.88467   0.39633   0.60735   0.00000  Uiso   1.00
C1226  C     0.85562   0.41454   0.10224   0.00000  Uiso   1.00
C1227  C     0.91203   0.40007   0.31635   0.00000  Uiso   1.00
C1228  C     0.89549   0.58532   0.23530   0.00000  Uiso   1.00
C1229  C     0.82951   0.57584   0.44173   0.00000  Uiso   1.00
C1230  C     0.86412   0.43257   0.01562   0.00000  Uiso   1.00
C1231  C     0.90116   0.41521   0.01659   0.00000  Uiso   1.00
C1232  C     0.86038   0.56553   0.23543   0.00000  Uiso   1.00
C1233  C     0.80532   0.45399   0.06230   0.00000  Uiso   1.00
C1234  C     0.84093   0.43171   0.05950   0.00000  Uiso   1.00
C1235  C     0.85193   0.41643   0.35941   0.00000  Uiso   1.00
C1236  C     0.80124   0.54286   0.19048   0.00000  Uiso   1.00
C1237  C     0.83532   0.56669   0.19400   0.00000  Uiso   1.00
C1238  C     0.86451   0.43619   0.27143   0.00000  Uiso   1.00
C1239  C     0.79731   0.54898   0.44043   0.00000  Uiso   1.00
C1240  C     0.89962   0.41835   0.27290   0.00000  Uiso   1.00
C1241  C     0.83987   0.59465   0.39678   0.00000  Uiso   1.00
C1242  C     0.80048   0.45285   0.31592   0.00000  Uiso   1.00
C1243  C     0.83860   0.43288   0.31477   0.00000  Uiso   1.00
C1244  C     0.85143   0.58087   0.48457   0.00000  Uiso   1.00
C1245  C     0.84569   0.58874   0.15355   0.00000  Uiso   1.00
C1246  C     0.88944   0.40320   0.36091   0.00000  Uiso   1.00
C1247  C     0.89626   0.58545   0.98396   0.00000  Uiso   1.00
C1248  C     0.86074   0.56531   0.98186   0.00000  Uiso   1.00
C1249  C     0.89780   0.58535   0.73021   0.00000  Uiso   1.00
C1250  C     0.84205   0.59125   0.90494   0.00000  Uiso   1.00
C1251  C     0.85369   0.41609   0.85613   0.00000  Uiso   1.00
C1252  C     0.79678   0.54930   0.94480   0.00000  Uiso   1.00
C1253  C     0.86594   0.43673   0.52158   0.00000  Uiso   1.00
C1254  C     0.90004   0.41747   0.52344   0.00000  Uiso   1.00
C1255  C     0.86522   0.56439   0.73245   0.00000  Uiso   1.00
C1256  C     0.80388   0.45526   0.56304   0.00000  Uiso   1.00
C1257  C     0.84018   0.43386   0.56115   0.00000  Uiso   1.00
C1258  C     0.84886   0.41195   0.60231   0.00000  Uiso   1.00
C1259  C     0.80219   0.54570   0.69078   0.00000  Uiso   1.00
C1260  C     0.83601   0.56906   0.69440   0.00000  Uiso   1.00
C1261  C     0.87390   0.44329   0.77652   0.00000  Uiso   1.00
C1262  C     0.83421   0.56907   0.94589   0.00000  Uiso   1.00
C1263  C     0.91019   0.42790   0.78343   0.00000  Uiso   1.00
C1264  C     0.84359   0.59250   0.65529   0.00000  Uiso   1.00
C1265  C     0.80834   0.45787   0.81307   0.00000  Uiso   1.00
C1266  C     0.84581   0.43940   0.81468   0.00000  Uiso   1.00
C1267  C     0.91775   0.40565   0.82386   0.00000  Uiso   1.00
C1268  C     0.90333   0.60932   0.19551   0.00000  Uiso   1.00
C1269  C     0.94016   0.62931   0.19458   0.00000  Uiso   1.00
C1270  C     0.87589   0.78298   0.02558   0.00000  Uiso   1.00
C1271  C     0.90689   0.76087   0.02651   0.00000  Uiso   1.00
C1272  C     0.87512   0.61448   0.39470   0.00000  Uiso   1.00
C1273  C     0.84875   0.78202   0.06488   0.00000  Uiso   1.00
C1274  C     0.95108   0.71632   0.07144   0.00000  Uiso   1.00
C1275  C     0.91757   0.74102   0.06906   0.00000  Uiso   1.00
C1276  C     0.85778   0.76467   0.10835   0.00000  Uiso   1.00
C1277  C     0.89085   0.74280   0.10946   0.00000  Uiso   1.00
C1278  C     0.93813   0.63196   0.44109   0.00000  Uiso   1.00
C1279  C     0.87645   0.61204   0.15521   0.00000  Uiso   1.00
C1280  C     0.87968   0.78513   0.27780   0.00000  Uiso   1.00
C1281  C     0.91519   0.76693   0.27906   0.00000  Uiso   1.00
C1282  C     0.85257   0.78178   0.31794   0.00000  Uiso   1.00
C1283  C     0.95829   0.72270   0.31533   0.00000  Uiso   1.00
C1284  C     0.92470   0.74687   0.31947   0.00000  Uiso   1.00
C1285  C     0.86389   0.76186   0.36112   0.00000  Uiso   1.00
C1286  C     0.90021   0.74701   0.36012   0.00000  Uiso   1.00
C1287  C     0.90024   0.61502   0.43867   0.00000  Uiso   1.00
C1288  C     0.88566   0.60035   0.48332   0.00000  Uiso   1.00
C1289  C     0.94268   0.63000   0.69307   0.00000  Uiso   1.00
C1290  C     0.87650   0.61342   0.65411   0.00000  Uiso   1.00
C1291  C     0.87627   0.78574   0.52105   0.00000  Uiso   1.00
C1292  C     0.91162   0.76886   0.52541   0.00000  Uiso   1.00
C1293  C     0.84918   0.78181   0.56090   0.00000  Uiso   1.00
C1294  C     0.95647   0.72348   0.57081   0.00000  Uiso   1.00
C1295  C     0.92146   0.74900   0.56914   0.00000  Uiso   1.00
C1296  C     0.85989   0.76240   0.60522   0.00000  Uiso   1.00
C1297  C     0.89546   0.74821   0.60867   0.00000  Uiso   1.00
C1298  C     0.94080   0.62587   0.94278   0.00000  Uiso   1.00
C1299  C     0.87941   0.60901   0.90302   0.00000  Uiso   1.00
C1300  C     0.87426   0.78356   0.77882   0.00000  Uiso   1.00
C1301  C     0.90919   0.76381   0.78135   0.00000  Uiso   1.00
C1302  C     0.90516   0.60475   0.94203   0.00000  Uiso   1.00
C1303  C     0.84882   0.78364   0.81894   0.00000  Uiso   1.00
C1304  C     0.95178   0.71764   0.82303   0.00000  Uiso   1.00
C1305  C     0.91965   0.74330   0.82419   0.00000  Uiso   1.00
C1306  C     0.86048   0.76539   0.86311   0.00000  Uiso   1.00
C1307  C     0.89490   0.74632   0.86599   0.00000  Uiso   1.00
C1308  C     0.90614   0.60890   0.68959   0.00000  Uiso   1.00
C1309  C     0.81252   0.79905   0.55865   0.00000  Uiso   1.00
C1310  C     0.85630   0.90246   0.48731   0.00000  Uiso   1.00
C1311  C     0.89141   0.92128   0.48659   0.00000  Uiso   1.00
C1312  C     0.88910   0.92455   0.23975   0.00000  Uiso   1.00
C1313  C     0.85557   0.90565   0.23755   0.00000  Uiso   1.00
C1314  C     0.87592   0.94672   0.15523   0.00000  Uiso   1.00
C1315  C     0.83989   0.92616   0.15611   0.00000  Uiso   1.00
C1316  C     0.93908   0.96458   0.19548   0.00000  Uiso   1.00
C1317  C     0.90077   0.94459   0.19678   0.00000  Uiso   1.00
C1318  C     0.79620   0.88116   0.19350   0.00000  Uiso   1.00
C1319  C     0.83112   0.90430   0.19561   0.00000  Uiso   1.00
C1320  C     0.87771   0.94233   0.40470   0.00000  Uiso   1.00
C1321  C     0.84203   0.92493   0.40397   0.00000  Uiso   1.00
C1322  C     0.94043   0.96138   0.44752   0.00000  Uiso   1.00
C1323  C     0.90270   0.94025   0.44673   0.00000  Uiso   1.00
C1324  C     0.79865   0.87830   0.44128   0.00000  Uiso   1.00
C1325  C     0.83271   0.90260   0.44448   0.00000  Uiso   1.00
C1326  C     0.81352   0.80014   0.31555   0.00000  Uiso   1.00
C1327  C     0.81035   0.80086   0.06360   0.00000  Uiso   1.00
C1328  C     0.88805   0.92912   0.74162   0.00000  Uiso   1.00
C1329  C     0.85305   0.91123   0.74310   0.00000  Uiso   1.00
C1330  C     0.87539   0.94749   0.65378   0.00000  Uiso   1.00
C1331  C     0.84404   0.92414   0.65462   0.00000  Uiso   1.00
C1332  C     0.93856   0.96450   0.69816   0.00000  Uiso   1.00
C1333  C     0.90046   0.94641   0.69669   0.00000  Uiso   1.00
C1334  C     0.79830   0.88159   0.69609   0.00000  Uiso   1.00
C1335  C     0.83043   0.90803   0.70046   0.00000  Uiso   1.00
C1336  C     0.89743   0.91904   0.98551   0.00000  Uiso   1.00
C1337  C     0.87573   0.95129   0.91300   0.00000  Uiso   1.00
C1338  C     0.84290   0.93022   0.91181   0.00000  Uiso   1.00
C1339  C     0.94124   0.96491   0.95134   0.00000  Uiso   1.00
C1340  C     0.90419   0.94508   0.95088   0.00000  Uiso   1.00
C1341  C     0.80115   0.88299   0.94499   0.00000  Uiso   1.00
C1342  C     0.83572   0.90477   0.94787   0.00000  Uiso   1.00
C1343  C     0.86195   0.90097   0.98851   0.00000  Uiso   1.00
C1344  C     0.81194   0.80065   0.81841   0.00000  Uiso   1.00
O1345  O     0.04537   0.01874   0.36365   0.00000  Uiso   1.00
O1346  O     0.04005   0.03054   0.27893   0.00000  Uiso   1.00
O1347  O     0.21986   0.11670   0.28291   0.00000  Uiso   1.00
O1348  O     0.20465   0.18763   0.23926   0.00000  Uiso   1.00
O1349  O     0.21597   0.12403   0.12034   0.00000  Uiso   1.00
O1350  O     0.04683   0.02582   0.11629   0.00000  Uiso   1.00
O1351  O     0.21511   0.12362   0.36713   0.00000  Uiso   1.00
O1352  O     0.21445   0.12310   0.03328   0.00000  Uiso   1.00
O1353  O     0.04545   0.02762   0.03025   0.00000  Uiso   1.00
O1354  O     0.20457   0.19539   0.15380   0.00000  Uiso   1.00
O1355  O     0.20548   0.19181   0.48541   0.00000  Uiso   1.00
O1356  O     0.20423   0.18916   0.40062   0.00000  Uiso   1.00
O1357  O     0.21280   0.12610   0.86483   0.00000  Uiso   1.00
O1358  O     0.20391   0.19568   0.73485   0.00000  Uiso   1.00
O1359  O     0.21765   0.12272   0.77625   0.00000  Uiso   1.00
O1360  O     0.05200   0.01333   0.86247   0.00000  Uiso   1.00
O1361  O     0.21236   0.13162   0.61663   0.00000  Uiso   1.00
O1362  O     0.04804   0.01892   0.77847   0.00000  Uiso   1.00
O1363  O     0.03951   0.03255   0.61582   0.00000  Uiso   1.00
O1364  O     0.20633   0.19221   0.98332   0.00000  Uiso   1.00
O1365  O     0.21828   0.12113   0.53224   0.00000  Uiso   1.00
O1366  O     0.04363   0.03209   0.52906   0.00000  Uiso   1.00
O1367  O     0.21017   0.19793   0.89923   0.00000  Uiso   1.00
O1368  O     0.04033   0.36694   0.27124   0.00000  Uiso   1.00
O1369  O     0.03796   0.29871   0.23542   0.00000  Uiso   1.00
O1370  O     0.04432   0.36530   0.35727   0.00000  Uiso   1.00
O1371  O     0.03546   0.29418   0.15112   0.00000  Uiso   1.00
O1372  O     0.03375   0.29403   0.40000   0.00000  Uiso   1.00
O1373  O     0.04449   0.36745   0.02617   0.00000  Uiso   1.00
O1374  O     0.04527   0.36409   0.11319   0.00000  Uiso   1.00
O1375  O     0.04146   0.30121   0.48659   0.00000  Uiso   1.00
O1376  O     0.03535   0.37561   0.78122   0.00000  Uiso   1.00
O1377  O     0.05165   0.35814   0.86122   0.00000  Uiso   1.00
O1378  O     0.03365   0.28965   0.90342   0.00000  Uiso   1.00
O1379  O     0.04275   0.30065   0.98879   0.00000  Uiso   1.00
O1380  O     0.04141   0.30153   0.65213   0.00000  Uiso   1.00
O1381  O     0.03578   0.37200   0.52342   0.00000  Uiso   1.00
O1382  O     0.04307   0.36717   0.60932   0.00000  Uiso   1.00
O1383  O     0.04293   0.31055   0.73758   0.00000  Uiso   1.00
O1384  O     0.21316   0.20369   0.65176   0.00000  Uiso   1.00
O1385  O     0.21547   0.46569   0.36338   0.00000  Uiso   1.00
O1386  O     0.21134   0.47096   0.03608   0.00000  Uiso   1.00
O1387  O     0.20627   0.52782   0.23881   0.00000  Uiso   1.00
O1388  O     0.21153   0.46723   0.27615   0.00000  Uiso   1.00
O1389  O     0.21514   0.47214   0.12116   0.00000  Uiso   1.00
O1390  O     0.20255   0.52814   0.39933   0.00000  Uiso   1.00
O1391  O     0.20806   0.52859   0.15051   0.00000  Uiso   1.00
O1392  O     0.20158   0.52862   0.48564   0.00000  Uiso   1.00
O1393  O     0.20847   0.47522   0.86468   0.00000  Uiso   1.00
O1394  O     0.20422   0.53181   0.98717   0.00000  Uiso   1.00
O1395  O     0.20451   0.52579   0.74623   0.00000  Uiso   1.00
O1396  O     0.21048   0.47131   0.52803   0.00000  Uiso   1.00
O1397  O     0.21226   0.46990   0.61179   0.00000  Uiso   1.00
O1398  O     0.21572   0.46496   0.78105   0.00000  Uiso   1.00
O1399  O     0.21052   0.53105   0.66110   0.00000  Uiso   1.00
O1400  O     0.21047   0.53507   0.90188   0.00000  Uiso   1.00
O1401  O     0.21557   0.79406   0.02243   0.00000  Uiso   1.00
O1402  O     0.04507   0.69733   0.27370   0.00000  Uiso   1.00
O1403  O     0.21448   0.79568   0.26862   0.00000  Uiso   1.00
O1404  O     0.03620   0.63309   0.40503   0.00000  Uiso   1.00
O1405  O     0.02948   0.62914   0.49278   0.00000  Uiso   1.00
O1406  O     0.03178   0.62459   0.15186   0.00000  Uiso   1.00
O1407  O     0.03830   0.63553   0.23643   0.00000  Uiso   1.00
O1408  O     0.04891   0.68856   0.35949   0.00000  Uiso   1.00
O1409  O     0.04811   0.68567   0.10927   0.00000  Uiso   1.00
O1410  O     0.04318   0.69394   0.02346   0.00000  Uiso   1.00
O1411  O     0.21832   0.79658   0.35445   0.00000  Uiso   1.00
O1412  O     0.21620   0.79165   0.76932   0.00000  Uiso   1.00
O1413  O     0.04115   0.69866   0.77595   0.00000  Uiso   1.00
O1414  O     0.03639   0.63348   0.90180   0.00000  Uiso   1.00
O1415  O     0.04673   0.69450   0.52357   0.00000  Uiso   1.00
O1416  O     0.22216   0.78720   0.52208   0.00000  Uiso   1.00
O1417  O     0.03489   0.63270   0.98959   0.00000  Uiso   1.00
O1418  O     0.03888   0.63753   0.65215   0.00000  Uiso   1.00
O1419  O     0.03777   0.63729   0.73970   0.00000  Uiso   1.00
O1420  O     0.04321   0.69179   0.86041   0.00000  Uiso   1.00
O1421  O     0.04380   0.69506   0.60812   0.00000  Uiso   1.00
O1422  O     0.21497   0.79189   0.60513   0.00000  Uiso   1.00
O1423  O     0.20662   0.85583   0.48516   0.00000  Uiso   1.00
O1424  O     0.03836   0.96582   0.15967   0.00000  Uiso   1.00
O1425  O     0.20990   0.87169   0.15044   0.00000  Uiso   1.00
O1426  O     0.03495   0.96767   0.24598   0.00000  Uiso   1.00
O1427  O     0.20787   0.86344   0.23538   0.00000  Uiso   1.00
O1428  O     0.03248   0.96117   0.40941   0.00000  Uiso   1.00
O1429  O     0.20803   0.86522   0.40212   0.00000  Uiso   1.00
O1430  O     0.03658   0.96730   0.49420   0.00000  Uiso   1.00
O1431  O     0.20743   0.80443   0.10761   0.00000  Uiso   1.00
O1432  O     0.04012   0.96589   0.99536   0.00000  Uiso   1.00
O1433  O     0.20578   0.85884   0.98424   0.00000  Uiso   1.00
O1434  O     0.03517   0.96394   0.65391   0.00000  Uiso   1.00
O1435  O     0.20559   0.85899   0.65024   0.00000  Uiso   1.00
O1436  O     0.03569   0.96437   0.74180   0.00000  Uiso   1.00
O1437  O     0.20242   0.85553   0.73216   0.00000  Uiso   1.00
O1438  O     0.02954   0.95428   0.91082   0.00000  Uiso   1.00
O1439  O     0.20625   0.86553   0.89685   0.00000  Uiso   1.00
O1440  O     0.21450   0.80069   0.85384   0.00000  Uiso   1.00
O1441  O     0.46602   0.03619   0.36276   0.00000  Uiso   1.00
O1442  O     0.29386   0.12988   0.28002   0.00000  Uiso   1.00
O1443  O     0.29780   0.13940   0.36494   0.00000  Uiso   1.00
O1444  O     0.29927   0.14990   0.10921   0.00000  Uiso   1.00
O1445  O     0.46776   0.04093   0.27987   0.00000  Uiso   1.00
O1446  O     0.46818   0.04021   0.02708   0.00000  Uiso   1.00
O1447  O     0.29106   0.13046   0.02869   0.00000  Uiso   1.00
O1448  O     0.46961   0.04356   0.11360   0.00000  Uiso   1.00
O1449  O     0.28741   0.19464   0.49205   0.00000  Uiso   1.00
O1450  O     0.28879   0.19181   0.24163   0.00000  Uiso   1.00
O1451  O     0.46411   0.03978   0.86088   0.00000  Uiso   1.00
O1452  O     0.29489   0.13973   0.77283   0.00000  Uiso   1.00
O1453  O     0.29402   0.13923   0.85816   0.00000  Uiso   1.00
O1454  O     0.45886   0.03450   0.77501   0.00000  Uiso   1.00
O1455  O     0.29798   0.14428   0.61495   0.00000  Uiso   1.00
O1456  O     0.47007   0.04338   0.52752   0.00000  Uiso   1.00
O1457  O     0.29397   0.13547   0.52915   0.00000  Uiso   1.00
O1458  O     0.46907   0.03857   0.61192   0.00000  Uiso   1.00
O1459  O     0.28319   0.19518   0.99306   0.00000  Uiso   1.00
O1460  O     0.28477   0.19735   0.90905   0.00000  Uiso   1.00
O1461  O     0.45034   0.30423   0.24337   0.00000  Uiso   1.00
O1462  O     0.46014   0.36683   0.28130   0.00000  Uiso   1.00
O1463  O     0.45274   0.30104   0.15626   0.00000  Uiso   1.00
O1464  O     0.46080   0.35981   0.02704   0.00000  Uiso   1.00
O1465  O     0.45863   0.36189   0.11305   0.00000  Uiso   1.00
O1466  O     0.45013   0.30490   0.48977   0.00000  Uiso   1.00
O1467  O     0.45024   0.30420   0.40363   0.00000  Uiso   1.00
O1468  O     0.46590   0.36831   0.36791   0.00000  Uiso   1.00
O1469  O     0.28075   0.20131   0.15733   0.00000  Uiso   1.00
O1470  O     0.28000   0.20188   0.40585   0.00000  Uiso   1.00
O1471  O     0.28740   0.20076   0.65368   0.00000  Uiso   1.00
O1472  O     0.45150   0.30641   0.99164   0.00000  Uiso   1.00
O1473  O     0.46753   0.37159   0.78481   0.00000  Uiso   1.00
O1474  O     0.45814   0.29888   0.90627   0.00000  Uiso   1.00
O1475  O     0.44901   0.31020   0.73646   0.00000  Uiso   1.00
O1476  O     0.46150   0.35920   0.86863   0.00000  Uiso   1.00
O1477  O     0.45575   0.30152   0.64995   0.00000  Uiso   1.00
O1478  O     0.46013   0.36823   0.52611   0.00000  Uiso   1.00
O1479  O     0.46161   0.36585   0.61350   0.00000  Uiso   1.00
O1480  O     0.28143   0.20346   0.73935   0.00000  Uiso   1.00
O1481  O     0.28685   0.46608   0.28610   0.00000  Uiso   1.00
O1482  O     0.29942   0.48189   0.36796   0.00000  Uiso   1.00
O1483  O     0.28858   0.46951   0.02478   0.00000  Uiso   1.00
O1484  O     0.28149   0.54491   0.15621   0.00000  Uiso   1.00
O1485  O     0.27492   0.54781   0.40417   0.00000  Uiso   1.00
O1486  O     0.29459   0.47448   0.11028   0.00000  Uiso   1.00
O1487  O     0.28884   0.53682   0.24238   0.00000  Uiso   1.00
O1488  O     0.28250   0.54299   0.49071   0.00000  Uiso   1.00
O1489  O     0.29209   0.47085   0.86793   0.00000  Uiso   1.00
O1490  O     0.28953   0.46734   0.78198   0.00000  Uiso   1.00
O1491  O     0.29256   0.47518   0.52930   0.00000  Uiso   1.00
O1492  O     0.28763   0.53927   0.99209   0.00000  Uiso   1.00
O1493  O     0.28565   0.54211   0.65520   0.00000  Uiso   1.00
O1494  O     0.28818   0.53933   0.90507   0.00000  Uiso   1.00
O1495  O     0.29483   0.47568   0.61706   0.00000  Uiso   1.00
O1496  O     0.28858   0.53702   0.74228   0.00000  Uiso   1.00
O1497  O     0.46535   0.70541   0.10711   0.00000  Uiso   1.00
O1498  O     0.46508   0.70105   0.35437   0.00000  Uiso   1.00
O1499  O     0.46349   0.70578   0.02155   0.00000  Uiso   1.00
O1500  O     0.46442   0.70146   0.26761   0.00000  Uiso   1.00
O1501  O     0.45361   0.64729   0.48429   0.00000  Uiso   1.00
O1502  O     0.45004   0.64667   0.39588   0.00000  Uiso   1.00
O1503  O     0.46003   0.63730   0.22901   0.00000  Uiso   1.00
O1504  O     0.45902   0.64038   0.14358   0.00000  Uiso   1.00
O1505  O     0.45466   0.64778   0.98211   0.00000  Uiso   1.00
O1506  O     0.46412   0.69967   0.86478   0.00000  Uiso   1.00
O1507  O     0.47189   0.70914   0.78065   0.00000  Uiso   1.00
O1508  O     0.46214   0.69962   0.60855   0.00000  Uiso   1.00
O1509  O     0.46493   0.70556   0.52161   0.00000  Uiso   1.00
O1510  O     0.46127   0.63311   0.90019   0.00000  Uiso   1.00
O1511  O     0.45810   0.63572   0.64915   0.00000  Uiso   1.00
O1512  O     0.45312   0.64804   0.73570   0.00000  Uiso   1.00
O1513  O     0.29280   0.79812   0.77298   0.00000  Uiso   1.00
O1514  O     0.29094   0.79942   0.52258   0.00000  Uiso   1.00
O1515  O     0.45651   0.97765   0.48788   0.00000  Uiso   1.00
O1516  O     0.46033   0.96975   0.40353   0.00000  Uiso   1.00
O1517  O     0.29245   0.85926   0.49045   0.00000  Uiso   1.00
O1518  O     0.29946   0.81268   0.35744   0.00000  Uiso   1.00
O1519  O     0.29715   0.81951   0.10442   0.00000  Uiso   1.00
O1520  O     0.29071   0.86667   0.23293   0.00000  Uiso   1.00
O1521  O     0.28785   0.87161   0.40464   0.00000  Uiso   1.00
O1522  O     0.45383   0.97805   0.23627   0.00000  Uiso   1.00
O1523  O     0.28230   0.87732   0.14843   0.00000  Uiso   1.00
O1524  O     0.45846   0.97030   0.14992   0.00000  Uiso   1.00
O1525  O     0.29042   0.80067   0.02535   0.00000  Uiso   1.00
O1526  O     0.29388   0.80600   0.27102   0.00000  Uiso   1.00
O1527  O     0.45387   0.97064   0.98776   0.00000  Uiso   1.00
O1528  O     0.28574   0.87147   0.89520   0.00000  Uiso   1.00
O1529  O     0.29019   0.86219   0.72948   0.00000  Uiso   1.00
O1530  O     0.45833   0.96673   0.72867   0.00000  Uiso   1.00
O1531  O     0.46160   0.96773   0.90168   0.00000  Uiso   1.00
O1532  O     0.28212   0.87054   0.64444   0.00000  Uiso   1.00
O1533  O     0.45369   0.97369   0.64446   0.00000  Uiso   1.00
O1534  O     0.28622   0.86894   0.98183   0.00000  Uiso   1.00
O1535  O     0.29802   0.81102   0.85695   0.00000  Uiso   1.00
O1536  O     0.29482   0.80867   0.60884   0.00000  Uiso   1.00
O1537  O     0.54277   0.03025   0.27305   0.00000  Uiso   1.00
O1538  O     0.55091   0.01638   0.35379   0.00000  Uiso   1.00
O1539  O     0.71591   0.12291   0.27639   0.00000  Uiso   1.00
O1540  O     0.71111   0.13497   0.11143   0.00000  Uiso   1.00
O1541  O     0.54220   0.03377   0.10955   0.00000  Uiso   1.00
O1542  O     0.70292   0.19202   0.48544   0.00000  Uiso   1.00
O1543  O     0.71489   0.12995   0.02423   0.00000  Uiso   1.00
O1544  O     0.54397   0.02575   0.02299   0.00000  Uiso   1.00
O1545  O     0.71363   0.12606   0.36397   0.00000  Uiso   1.00
O1546  O     0.70014   0.18989   0.23563   0.00000  Uiso   1.00
O1547  O     0.70686   0.19760   0.39837   0.00000  Uiso   1.00
O1548  O     0.71022   0.19369   0.73566   0.00000  Uiso   1.00
O1549  O     0.70545   0.19222   0.97920   0.00000  Uiso   1.00
O1550  O     0.71807   0.12593   0.86419   0.00000  Uiso   1.00
O1551  O     0.54357   0.02670   0.77283   0.00000  Uiso   1.00
O1552  O     0.71012   0.13777   0.61158   0.00000  Uiso   1.00
O1553  O     0.54623   0.03001   0.85988   0.00000  Uiso   1.00
O1554  O     0.54996   0.02155   0.61431   0.00000  Uiso   1.00
O1555  O     0.71550   0.12680   0.77761   0.00000  Uiso   1.00
O1556  O     0.72028   0.12215   0.52797   0.00000  Uiso   1.00
O1557  O     0.54171   0.03620   0.53090   0.00000  Uiso   1.00
O1558  O     0.70971   0.19600   0.89306   0.00000  Uiso   1.00
O1559  O     0.53699   0.36521   0.27635   0.00000  Uiso   1.00
O1560  O     0.53969   0.35822   0.11380   0.00000  Uiso   1.00
O1561  O     0.54286   0.35844   0.36284   0.00000  Uiso   1.00
O1562  O     0.53055   0.29288   0.49305   0.00000  Uiso   1.00
O1563  O     0.53086   0.28968   0.40583   0.00000  Uiso   1.00
O1564  O     0.52990   0.29423   0.23792   0.00000  Uiso   1.00
O1565  O     0.54039   0.35875   0.02830   0.00000  Uiso   1.00
O1566  O     0.52980   0.29111   0.15057   0.00000  Uiso   1.00
O1567  O     0.70739   0.20272   0.15090   0.00000  Uiso   1.00
O1568  O     0.53822   0.36543   0.77686   0.00000  Uiso   1.00
O1569  O     0.53793   0.29926   0.74152   0.00000  Uiso   1.00
O1570  O     0.54494   0.36028   0.85969   0.00000  Uiso   1.00
O1571  O     0.53664   0.28817   0.90010   0.00000  Uiso   1.00
O1572  O     0.71454   0.20620   0.65041   0.00000  Uiso   1.00
O1573  O     0.54050   0.36415   0.52141   0.00000  Uiso   1.00
O1574  O     0.53122   0.28724   0.98708   0.00000  Uiso   1.00
O1575  O     0.53904   0.29675   0.65493   0.00000  Uiso   1.00
O1576  O     0.54124   0.36175   0.60824   0.00000  Uiso   1.00
O1577  O     0.70780   0.46975   0.36247   0.00000  Uiso   1.00
O1578  O     0.70906   0.52629   0.14667   0.00000  Uiso   1.00
O1579  O     0.71051   0.46364   0.27548   0.00000  Uiso   1.00
O1580  O     0.70876   0.46440   0.02148   0.00000  Uiso   1.00
O1581  O     0.70239   0.52432   0.48097   0.00000  Uiso   1.00
O1582  O     0.70300   0.52092   0.23343   0.00000  Uiso   1.00
O1583  O     0.70646   0.53122   0.39670   0.00000  Uiso   1.00
O1584  O     0.71323   0.46324   0.10826   0.00000  Uiso   1.00
O1585  O     0.71233   0.46606   0.86134   0.00000  Uiso   1.00
O1586  O     0.70503   0.52031   0.73589   0.00000  Uiso   1.00
O1587  O     0.70811   0.46570   0.52579   0.00000  Uiso   1.00
O1588  O     0.70803   0.52853   0.65040   0.00000  Uiso   1.00
O1589  O     0.71558   0.46245   0.77690   0.00000  Uiso   1.00
O1590  O     0.70247   0.51925   0.97923   0.00000  Uiso   1.00
O1591  O     0.70634   0.52577   0.89427   0.00000  Uiso   1.00
O1592  O     0.71049   0.46858   0.60906   0.00000  Uiso   1.00
O1593  O     0.54517   0.69685   0.27453   0.00000  Uiso   1.00
O1594  O     0.52869   0.62449   0.39653   0.00000  Uiso   1.00
O1595  O     0.54442   0.70065   0.02090   0.00000  Uiso   1.00
O1596  O     0.53467   0.62998   0.48212   0.00000  Uiso   1.00
O1597  O     0.53736   0.62999   0.14434   0.00000  Uiso   1.00
O1598  O     0.53948   0.63297   0.23010   0.00000  Uiso   1.00
O1599  O     0.54644   0.69234   0.35781   0.00000  Uiso   1.00
O1600  O     0.54600   0.69632   0.10677   0.00000  Uiso   1.00
O1601  O     0.72231   0.78665   0.27674   0.00000  Uiso   1.00
O1602  O     0.71356   0.79883   0.01915   0.00000  Uiso   1.00
O1603  O     0.71662   0.79648   0.36119   0.00000  Uiso   1.00
O1604  O     0.54170   0.70153   0.77317   0.00000  Uiso   1.00
O1605  O     0.54045   0.70347   0.52442   0.00000  Uiso   1.00
O1606  O     0.53380   0.62757   0.65021   0.00000  Uiso   1.00
O1607  O     0.54144   0.63897   0.73581   0.00000  Uiso   1.00
O1608  O     0.53736   0.62735   0.90001   0.00000  Uiso   1.00
O1609  O     0.54493   0.69416   0.60804   0.00000  Uiso   1.00
O1610  O     0.54830   0.68965   0.85673   0.00000  Uiso   1.00
O1611  O     0.53452   0.62791   0.98609   0.00000  Uiso   1.00
O1612  O     0.71405   0.79416   0.52751   0.00000  Uiso   1.00
O1613  O     0.71688   0.79563   0.77554   0.00000  Uiso   1.00
O1614  O     0.70241   0.85504   0.48186   0.00000  Uiso   1.00
O1615  O     0.54098   0.97233   0.14708   0.00000  Uiso   1.00
O1616  O     0.70927   0.86758   0.15101   0.00000  Uiso   1.00
O1617  O     0.53634   0.96668   0.23470   0.00000  Uiso   1.00
O1618  O     0.70151   0.85138   0.23414   0.00000  Uiso   1.00
O1619  O     0.53308   0.95847   0.40503   0.00000  Uiso   1.00
O1620  O     0.71159   0.86663   0.40141   0.00000  Uiso   1.00
O1621  O     0.54206   0.97053   0.48997   0.00000  Uiso   1.00
O1622  O     0.71165   0.80063   0.10777   0.00000  Uiso   1.00
O1623  O     0.70967   0.80889   0.85874   0.00000  Uiso   1.00
O1624  O     0.70674   0.86576   0.98327   0.00000  Uiso   1.00
O1625  O     0.53296   0.96312   0.98629   0.00000  Uiso   1.00
O1626  O     0.53517   0.96170   0.64995   0.00000  Uiso   1.00
O1627  O     0.70793   0.86493   0.64618   0.00000  Uiso   1.00
O1628  O     0.53663   0.96717   0.73904   0.00000  Uiso   1.00
O1629  O     0.70846   0.85964   0.73085   0.00000  Uiso   1.00
O1630  O     0.54045   0.96928   0.90051   0.00000  Uiso   1.00
O1631  O     0.71361   0.87397   0.89903   0.00000  Uiso   1.00
O1632  O     0.71549   0.80194   0.61269   0.00000  Uiso   1.00
O1633  O     0.95530   0.02796   0.36833   0.00000  Uiso   1.00
O1634  O     0.78840   0.13360   0.27551   0.00000  Uiso   1.00
O1635  O     0.79284   0.14454   0.35916   0.00000  Uiso   1.00
O1636  O     0.79679   0.14393   0.11122   0.00000  Uiso   1.00
O1637  O     0.96563   0.03958   0.28487   0.00000  Uiso   1.00
O1638  O     0.97043   0.04502   0.03031   0.00000  Uiso   1.00
O1639  O     0.79385   0.13889   0.02693   0.00000  Uiso   1.00
O1640  O     0.96695   0.03886   0.11829   0.00000  Uiso   1.00
O1641  O     0.79127   0.19281   0.48234   0.00000  Uiso   1.00
O1642  O     0.78705   0.19950   0.23857   0.00000  Uiso   1.00
O1643  O     0.96500   0.03057   0.87080   0.00000  Uiso   1.00
O1644  O     0.79693   0.13161   0.77269   0.00000  Uiso   1.00
O1645  O     0.79678   0.13627   0.85963   0.00000  Uiso   1.00
O1646  O     0.79460   0.14012   0.60940   0.00000  Uiso   1.00
O1647  O     0.97216   0.03924   0.78724   0.00000  Uiso   1.00
O1648  O     0.96691   0.04116   0.53296   0.00000  Uiso   1.00
O1649  O     0.79037   0.13253   0.52257   0.00000  Uiso   1.00
O1650  O     0.95747   0.02905   0.61926   0.00000  Uiso   1.00
O1651  O     0.79435   0.19762   0.73789   0.00000  Uiso   1.00
O1652  O     0.79448   0.19776   0.90063   0.00000  Uiso   1.00
O1653  O     0.77774   0.20926   0.39968   0.00000  Uiso   1.00
O1654  O     0.96102   0.36985   0.27637   0.00000  Uiso   1.00
O1655  O     0.95181   0.31065   0.23479   0.00000  Uiso   1.00
O1656  O     0.96352   0.36878   0.36162   0.00000  Uiso   1.00
O1657  O     0.78534   0.20490   0.15103   0.00000  Uiso   1.00
O1658  O     0.95713   0.30741   0.15020   0.00000  Uiso   1.00
O1659  O     0.96740   0.37089   0.01976   0.00000  Uiso   1.00
O1660  O     0.96198   0.36401   0.10548   0.00000  Uiso   1.00
O1661  O     0.95735   0.30648   0.47965   0.00000  Uiso   1.00
O1662  O     0.95512   0.30962   0.39398   0.00000  Uiso   1.00
O1663  O     0.95910   0.30608   0.89752   0.00000  Uiso   1.00
O1664  O     0.96635   0.36717   0.86404   0.00000  Uiso   1.00
O1665  O     0.95818   0.31015   0.73546   0.00000  Uiso   1.00
O1666  O     0.95887   0.31048   0.98269   0.00000  Uiso   1.00
O1667  O     0.96338   0.30301   0.64831   0.00000  Uiso   1.00
O1668  O     0.95757   0.36460   0.52238   0.00000  Uiso   1.00
O1669  O     0.96052   0.36528   0.60956   0.00000  Uiso   1.00
O1670  O     0.96210   0.37050   0.77818   0.00000  Uiso   1.00
O1671  O     0.79400   0.20253   0.65132   0.00000  Uiso   1.00
O1672  O     0.78648   0.20520   0.98455   0.00000  Uiso   1.00
O1673  O     0.78318   0.45829   0.27391   0.00000  Uiso   1.00
O1674  O     0.78646   0.53349   0.14659   0.00000  Uiso   1.00
O1675  O     0.79012   0.46825   0.35818   0.00000  Uiso   1.00
O1676  O     0.78527   0.53500   0.48481   0.00000  Uiso   1.00
O1677  O     0.78398   0.45879   0.02194   0.00000  Uiso   1.00
O1678  O     0.78553   0.53257   0.23384   0.00000  Uiso   1.00
O1679  O     0.78366   0.53813   0.39681   0.00000  Uiso   1.00
O1680  O     0.79541   0.46810   0.10560   0.00000  Uiso   1.00
O1681  O     0.79485   0.46916   0.85605   0.00000  Uiso   1.00
O1682  O     0.78801   0.53293   0.98707   0.00000  Uiso   1.00
O1683  O     0.78482   0.46077   0.52140   0.00000  Uiso   1.00
O1684  O     0.79054   0.53076   0.73220   0.00000  Uiso   1.00
O1685  O     0.78311   0.53911   0.90115   0.00000  Uiso   1.00
O1686  O     0.79422   0.46978   0.60650   0.00000  Uiso   1.00
O1687  O     0.78728   0.53869   0.64635   0.00000  Uiso   1.00
O1688  O     0.78933   0.46139   0.77047   0.00000  Uiso   1.00
O1689  O     0.96993   0.70761   0.35643   0.00000  Uiso   1.00
O1690  O     0.95204   0.64184   0.48447   0.00000  Uiso   1.00
O1691  O     0.96344   0.70084   0.11341   0.00000  Uiso   1.00
O1692  O     0.97117   0.71264   0.27160   0.00000  Uiso   1.00
O1693  O     0.96597   0.70631   0.02691   0.00000  Uiso   1.00
O1694  O     0.95536   0.64053   0.39784   0.00000  Uiso   1.00
O1695  O     0.95347   0.64366   0.23688   0.00000  Uiso   1.00
O1696  O     0.95848   0.63230   0.15243   0.00000  Uiso   1.00
O1697  O     0.95729   0.63284   0.89949   0.00000  Uiso   1.00
O1698  O     0.96880   0.71166   0.52680   0.00000  Uiso   1.00
O1699  O     0.96178   0.70131   0.86499   0.00000  Uiso   1.00
O1700  O     0.95474   0.63778   0.98690   0.00000  Uiso   1.00
O1701  O     0.95897   0.63917   0.64964   0.00000  Uiso   1.00
O1702  O     0.96553   0.70849   0.77817   0.00000  Uiso   1.00
O1703  O     0.96547   0.70924   0.61399   0.00000  Uiso   1.00
O1704  O     0.95242   0.64306   0.73626   0.00000  Uiso   1.00
O1705  O     0.96126   0.96247   0.40754   0.00000  Uiso   1.00
O1706  O     0.79591   0.81452   0.10499   0.00000  Uiso   1.00
O1707  O     0.95204   0.97783   0.48988   0.00000  Uiso   1.00
O1708  O     0.78362   0.86706   0.48349   0.00000  Uiso   1.00
O1709  O     0.78451   0.86473   0.23506   0.00000  Uiso   1.00
O1710  O     0.78804   0.86801   0.39638   0.00000  Uiso   1.00
O1711  O     0.95324   0.97785   0.23757   0.00000  Uiso   1.00
O1712  O     0.78310   0.87225   0.14862   0.00000  Uiso   1.00
O1713  O     0.95882   0.96807   0.15380   0.00000  Uiso   1.00
O1714  O     0.79519   0.80348   0.27369   0.00000  Uiso   1.00
O1715  O     0.79769   0.81310   0.35495   0.00000  Uiso   1.00
O1716  O     0.79108   0.80357   0.02181   0.00000  Uiso   1.00
O1717  O     0.96042   0.96784   0.91044   0.00000  Uiso   1.00
O1718  O     0.79970   0.81242   0.60060   0.00000  Uiso   1.00
O1719  O     0.95204   0.98007   0.99255   0.00000  Uiso   1.00
O1720  O     0.78291   0.86747   0.73693   0.00000  Uiso   1.00
O1721  O     0.78701   0.87785   0.89972   0.00000  Uiso   1.00
O1722  O     0.95396   0.97510   0.74034   0.00000  Uiso   1.00
O1723  O     0.78884   0.87121   0.65122   0.00000  Uiso   1.00
O1724  O     0.95744   0.96837   0.65642   0.00000  Uiso   1.00
O1725  O     0.79017   0.86714   0.98548   0.00000  Uiso   1.00
O1726  O     0.79637   0.81461   0.85937   0.00000  Uiso   1.00
O1727  O     0.79425   0.80308   0.51633   0.00000  Uiso   1.00
O1728  O     0.79388   0.80530   0.77285   0.00000  Uiso   1.00
O1729  O     0.23803   0.18081   0.32038   0.00000  Uiso   1.00
O1730  O     0.23233   0.18456   0.06754   0.00000  Uiso   1.00
O1731  O     0.24938   0.13438   0.19056   0.00000  Uiso   1.00
O1732  O     0.24613   0.13477   0.44530   0.00000  Uiso   1.00
O1733  O     0.24302   0.14057   0.69167   0.00000  Uiso   1.00
O1734  O     0.23709   0.18406   0.56751   0.00000  Uiso   1.00
O1735  O     0.00725   0.02504   0.94422   0.00000  Uiso   1.00
O1736  O     0.23625   0.18538   0.81981   0.00000  Uiso   1.00
O1737  O     0.24278   0.13742   0.94308   0.00000  Uiso   1.00
O1738  O     0.00660   0.35805   0.18916   0.00000  Uiso   1.00
O1739  O     0.01203   0.35845   0.43988   0.00000  Uiso   1.00
O1740  O     0.00562   0.31072   0.06392   0.00000  Uiso   1.00
O1741  O     0.00428   0.31217   0.31465   0.00000  Uiso   1.00
O1742  O     0.01459   0.35591   0.94035   0.00000  Uiso   1.00
O1743  O     0.00696   0.35870   0.69220   0.00000  Uiso   1.00
O1744  O     0.01142   0.31242   0.56562   0.00000  Uiso   1.00
O1745  O     0.00599   0.30918   0.81462   0.00000  Uiso   1.00
O1746  O     0.24976   0.52969   0.56966   0.00000  Uiso   1.00
O1747  O     0.24976   0.81027   0.18659   0.00000  Uiso   1.00
O1748  O     0.23970   0.85820   0.06133   0.00000  Uiso   1.00
O1749  O     0.24446   0.85713   0.31491   0.00000  Uiso   1.00
O1750  O     0.24318   0.80743   0.43738   0.00000  Uiso   1.00
O1751  O     0.24050   0.85546   0.81102   0.00000  Uiso   1.00
O1752  O     0.23907   0.85423   0.56206   0.00000  Uiso   1.00
O1753  O     0.24654   0.80679   0.68547   0.00000  Uiso   1.00
O1754  O     0.24852   0.80807   0.93611   0.00000  Uiso   1.00
O1755  O     0.49882   0.02526   0.19465   0.00000  Uiso   1.00
O1756  O     0.49523   0.02270   0.69013   0.00000  Uiso   1.00
O1757  O     0.49421   0.02624   0.94370   0.00000  Uiso   1.00
O1758  O     0.25958   0.48203   0.44645   0.00000  Uiso   1.00
O1759  O     0.26599   0.48128   0.19555   0.00000  Uiso   1.00
O1760  O     0.25867   0.52723   0.07123   0.00000  Uiso   1.00
O1761  O     0.25540   0.52781   0.31881   0.00000  Uiso   1.00
O1762  O     0.25751   0.48168   0.69412   0.00000  Uiso   1.00
O1763  O     0.25523   0.47971   0.94705   0.00000  Uiso   1.00
O1764  O     0.25801   0.52707   0.81911   0.00000  Uiso   1.00
O1765  O     0.49399   0.97518   0.31858   0.00000  Uiso   1.00
O1766  O     0.48686   0.97978   0.07058   0.00000  Uiso   1.00
O1767  O     0.49326   0.97700   0.56820   0.00000  Uiso   1.00
O1768  O     0.48608   0.97833   0.81538   0.00000  Uiso   1.00
O1769  O     0.73643   0.18584   0.31560   0.00000  Uiso   1.00
O1770  O     0.50406   0.02520   0.44111   0.00000  Uiso   1.00
O1771  O     0.73954   0.18974   0.06430   0.00000  Uiso   1.00
O1772  O     0.74361   0.14323   0.43831   0.00000  Uiso   1.00
O1773  O     0.74592   0.14123   0.19021   0.00000  Uiso   1.00
O1774  O     0.74870   0.18559   0.81579   0.00000  Uiso   1.00
O1775  O     0.74918   0.19019   0.56352   0.00000  Uiso   1.00
O1776  O     0.74902   0.14458   0.68840   0.00000  Uiso   1.00
O1777  O     0.50435   0.30445   0.07066   0.00000  Uiso   1.00
O1778  O     0.50594   0.35312   0.19587   0.00000  Uiso   1.00
O1779  O     0.50803   0.35112   0.44356   0.00000  Uiso   1.00
O1780  O     0.50030   0.30775   0.31982   0.00000  Uiso   1.00
O1781  O     0.50458   0.31032   0.56836   0.00000  Uiso   1.00
O1782  O     0.51286   0.35086   0.94620   0.00000  Uiso   1.00
O1783  O     0.50619   0.35475   0.69549   0.00000  Uiso   1.00
O1784  O     0.50432   0.30717   0.81805   0.00000  Uiso   1.00
O1785  O     0.50552   0.64465   0.06238   0.00000  Uiso   1.00
O1786  O     0.51289   0.69071   0.18757   0.00000  Uiso   1.00
O1787  O     0.51092   0.68879   0.43813   0.00000  Uiso   1.00
O1788  O     0.50355   0.64594   0.31038   0.00000  Uiso   1.00
O1789  O     0.51490   0.69105   0.93833   0.00000  Uiso   1.00
O1790  O     0.50190   0.69164   0.68588   0.00000  Uiso   1.00
O1791  O     0.50510   0.64262   0.55990   0.00000  Uiso   1.00
O1792  O     0.50124   0.64204   0.81158   0.00000  Uiso   1.00
O1793  O     0.74696   0.80525   0.18794   0.00000  Uiso   1.00
O1794  O     0.74219   0.85963   0.06148   0.00000  Uiso   1.00
O1795  O     0.73824   0.85451   0.31549   0.00000  Uiso   1.00
O1796  O     0.74911   0.80706   0.43774   0.00000  Uiso   1.00
O1797  O     0.74952   0.81432   0.93661   0.00000  Uiso   1.00
O1798  O     0.99835   0.02592   0.19641   0.00000  Uiso   1.00
O1799  O     0.99725   0.02632   0.44511   0.00000  Uiso   1.00
O1800  O     0.99476   0.02548   0.69801   0.00000  Uiso   1.00
O1801  O     0.75323   0.14052   0.94386   0.00000  Uiso   1.00
O1802  O     0.75863   0.52025   0.31235   0.00000  Uiso   1.00
O1803  O     0.75745   0.47672   0.43709   0.00000  Uiso   1.00
O1804  O     0.75501   0.52129   0.06029   0.00000  Uiso   1.00
O1805  O     0.76156   0.47534   0.18800   0.00000  Uiso   1.00
O1806  O     0.76479   0.47517   0.93619   0.00000  Uiso   1.00
O1807  O     0.75622   0.47530   0.68536   0.00000  Uiso   1.00
O1808  O     0.76000   0.52293   0.81402   0.00000  Uiso   1.00
O1809  O     0.75097   0.52370   0.56366   0.00000  Uiso   1.00
O1810  O     0.98394   0.64462   0.06601   0.00000  Uiso   1.00
O1811  O     0.99146   0.64390   0.31593   0.00000  Uiso   1.00
O1812  O     0.99777   0.69525   0.44250   0.00000  Uiso   1.00
O1813  O     0.99842   0.69214   0.18657   0.00000  Uiso   1.00
O1814  O     0.99479   0.69449   0.69155   0.00000  Uiso   1.00
O1815  O     0.98771   0.64568   0.81594   0.00000  Uiso   1.00
O1816  O     0.98671   0.64953   0.56784   0.00000  Uiso   1.00
O1817  O     0.98827   0.69077   0.94102   0.00000  Uiso   1.00
O1818  O     0.99338   0.97913   0.07147   0.00000  Uiso   1.00
O1819  O     0.99115   0.97683   0.32021   0.00000  Uiso   1.00
O1820  O     0.99906   0.97743   0.56958   0.00000  Uiso   1.00
O1821  O     0.98741   0.97451   0.82134   0.00000  Uiso   1.00
O1822  O     0.76053   0.80869   0.68530   0.00000  Uiso   1.00
O1823  O     0.75021   0.85599   0.56207   0.00000  Uiso   1.00
O1824  O     0.75115   0.85981   0.80949   0.00000  Uiso   1.00
