data_final_I-Zn-SABVOH01
_audit_creation_date              2022-12-15
_audit_creation_method            'Materials Studio'
_symmetry_space_group_name_H-M    'P1'
_symmetry_Int_Tables_number       1
_symmetry_cell_setting            triclinic
loop_
_symmetry_equiv_pos_as_xyz
  x,y,z
_cell_length_a                    34.0910
_cell_length_b                    36.8433
_cell_length_c                    26.3786
_cell_angle_alpha                 90.0000
_cell_angle_beta                  90.0000
_cell_angle_gamma                 90.0000
loop_
_atom_site_label
_atom_site_type_symbol
_atom_site_fract_x
_atom_site_fract_y
_atom_site_fract_z
_atom_site_U_iso_or_equiv
_atom_site_adp_type
_atom_site_occupancy
Zn1    Zn    0.00052   0.00304   0.26771   0.00000  Uiso   1.00
Zn2    Zn    0.24988   0.16454   0.13386   0.00000  Uiso   1.00
Zn3    Zn    0.24979   0.16238   0.00931   0.00000  Uiso   1.00
Zn4    Zn    0.24860   0.16584   0.76094   0.00000  Uiso   1.00
Zn5    Zn    0.24953   0.16823   0.88555   0.00000  Uiso   1.00
Zn6    Zn    0.24897   0.16819   0.51167   0.00000  Uiso   1.00
Zn7    Zn    0.00320   0.00061   0.64049   0.00000  Uiso   1.00
Zn8    Zn    0.00155   0.32970   0.38535   0.00000  Uiso   1.00
Zn9    Zn    0.00044   0.33567   0.01203   0.00000  Uiso   1.00
Zn10   Zn    0.00222   0.33203   0.51157   0.00000  Uiso   1.00
Zn11   Zn    0.24893   0.49202   0.01011   0.00000  Uiso   1.00
Zn12   Zn    0.24983   0.49947   0.26416   0.00000  Uiso   1.00
Zn13   Zn    0.24939   0.49747   0.88819   0.00000  Uiso   1.00
Zn14   Zn    0.24963   0.49386   0.76382   0.00000  Uiso   1.00
Zn15   Zn    0.24944   0.49952   0.51509   0.00000  Uiso   1.00
Zn16   Zn    0.00239   0.66504   0.38517   0.00000  Uiso   1.00
Zn17   Zn    0.00236   0.66734   0.76321   0.00000  Uiso   1.00
Zn18   Zn    0.00440   0.66515   0.63721   0.00000  Uiso   1.00
Zn19   Zn    0.00251   0.67119   0.51326   0.00000  Uiso   1.00
Zn20   Zn    0.00136   0.99927   0.14186   0.00000  Uiso   1.00
Zn21   Zn    0.24925   0.83024   0.01569   0.00000  Uiso   1.00
Zn22   Zn    0.25035   0.16391   0.25748   0.00000  Uiso   1.00
Zn23   Zn    0.25185   0.16574   0.38487   0.00000  Uiso   1.00
Zn24   Zn    0.25095   0.16822   0.63788   0.00000  Uiso   1.00
Zn25   Zn    0.49910   0.33622   0.26301   0.00000  Uiso   1.00
Zn26   Zn    0.49792   0.33589   0.38859   0.00000  Uiso   1.00
Zn27   Zn    0.49997   0.33386   0.01263   0.00000  Uiso   1.00
Zn28   Zn    0.49792   0.33724   0.51551   0.00000  Uiso   1.00
Zn29   Zn    0.25128   0.50272   0.39137   0.00000  Uiso   1.00
Zn30   Zn    0.25222   0.49881   0.14011   0.00000  Uiso   1.00
Zn31   Zn    0.25059   0.49979   0.64077   0.00000  Uiso   1.00
Zn32   Zn    0.49869   0.66683   0.01494   0.00000  Uiso   1.00
Zn33   Zn    0.49724   0.66546   0.38862   0.00000  Uiso   1.00
Zn34   Zn    0.49728   0.66863   0.26730   0.00000  Uiso   1.00
Zn35   Zn    0.49818   0.65856   0.64156   0.00000  Uiso   1.00
Zn36   Zn    0.49792   0.66852   0.51573   0.00000  Uiso   1.00
Zn37   Zn    0.49549   0.66915   0.76689   0.00000  Uiso   1.00
Zn38   Zn    0.49662   0.66704   0.89043   0.00000  Uiso   1.00
Zn39   Zn    0.25345   0.83432   0.39215   0.00000  Uiso   1.00
Zn40   Zn    0.25288   0.83721   0.26513   0.00000  Uiso   1.00
Zn41   Zn    0.25037   0.83331   0.14192   0.00000  Uiso   1.00
Zn42   Zn    0.25315   0.83256   0.89229   0.00000  Uiso   1.00
Zn43   Zn    0.25155   0.83826   0.51631   0.00000  Uiso   1.00
Zn44   Zn    0.25225   0.83588   0.64305   0.00000  Uiso   1.00
Zn45   Zn    0.25036   0.83353   0.76829   0.00000  Uiso   1.00
Zn46   Zn    0.50158   0.00309   0.26145   0.00000  Uiso   1.00
Zn47   Zn    0.74825   0.16474   0.00971   0.00000  Uiso   1.00
Zn48   Zn    0.50274   0.00103   0.38513   0.00000  Uiso   1.00
Zn49   Zn    0.50320   0.00571   0.51014   0.00000  Uiso   1.00
Zn50   Zn    0.50080   0.00082   0.63367   0.00000  Uiso   1.00
Zn51   Zn    0.74986   0.16682   0.51222   0.00000  Uiso   1.00
Zn52   Zn    0.74845   0.17256   0.63817   0.00000  Uiso   1.00
Zn53   Zn    0.50132   0.00030   0.75969   0.00000  Uiso   1.00
Zn54   Zn    0.50003   0.00239   0.88660   0.00000  Uiso   1.00
Zn55   Zn    0.74826   0.16852   0.88458   0.00000  Uiso   1.00
Zn56   Zn    0.74937   0.16690   0.75984   0.00000  Uiso   1.00
Zn57   Zn    0.50151   0.33450   0.13931   0.00000  Uiso   1.00
Zn58   Zn    0.50046   0.33430   0.76294   0.00000  Uiso   1.00
Zn59   Zn    0.50038   0.33310   0.88624   0.00000  Uiso   1.00
Zn60   Zn    0.50028   0.33281   0.63972   0.00000  Uiso   1.00
Zn61   Zn    0.74877   0.49635   0.26532   0.00000  Uiso   1.00
Zn62   Zn    0.74969   0.50150   0.76326   0.00000  Uiso   1.00
Zn63   Zn    0.50009   0.66565   0.14127   0.00000  Uiso   1.00
Zn64   Zn    0.50116   0.99942   0.13700   0.00000  Uiso   1.00
Zn65   Zn    0.50273   0.99941   0.01299   0.00000  Uiso   1.00
Zn66   Zn    0.74989   0.83136   0.39127   0.00000  Uiso   1.00
Zn67   Zn    0.74648   0.82907   0.51796   0.00000  Uiso   1.00
Zn68   Zn    0.74708   0.82860   0.76376   0.00000  Uiso   1.00
Zn69   Zn    0.74842   0.82895   0.64376   0.00000  Uiso   1.00
Zn70   Zn    0.75083   0.16854   0.26373   0.00000  Uiso   1.00
Zn71   Zn    0.75107   0.16883   0.38671   0.00000  Uiso   1.00
Zn72   Zn    0.75131   0.16676   0.13647   0.00000  Uiso   1.00
Zn73   Zn    0.99918   0.33418   0.25900   0.00000  Uiso   1.00
Zn74   Zn    0.99916   0.33047   0.13353   0.00000  Uiso   1.00
Zn75   Zn    0.99701   0.32999   0.76142   0.00000  Uiso   1.00
Zn76   Zn    0.99922   0.32965   0.63616   0.00000  Uiso   1.00
Zn77   Zn    0.99953   0.32437   0.88702   0.00000  Uiso   1.00
Zn78   Zn    0.75065   0.50108   0.13754   0.00000  Uiso   1.00
Zn79   Zn    0.75025   0.50409   0.01216   0.00000  Uiso   1.00
Zn80   Zn    0.75192   0.50455   0.38740   0.00000  Uiso   1.00
Zn81   Zn    0.75082   0.50226   0.63694   0.00000  Uiso   1.00
Zn82   Zn    0.75193   0.50096   0.51269   0.00000  Uiso   1.00
Zn83   Zn    0.75430   0.50171   0.88712   0.00000  Uiso   1.00
Zn84   Zn    0.99701   0.66220   0.13579   0.00000  Uiso   1.00
Zn85   Zn    0.99861   0.66564   0.01310   0.00000  Uiso   1.00
Zn86   Zn    0.99972   0.67118   0.25968   0.00000  Uiso   1.00
Zn87   Zn    0.99955   0.66308   0.88807   0.00000  Uiso   1.00
Zn88   Zn    0.75187   0.82923   0.26579   0.00000  Uiso   1.00
Zn89   Zn    0.99775   0.99621   0.01799   0.00000  Uiso   1.00
Zn90   Zn    0.75278   0.83359   0.14184   0.00000  Uiso   1.00
Zn91   Zn    0.99875   0.99996   0.39126   0.00000  Uiso   1.00
Zn92   Zn    0.75017   0.83081   0.01345   0.00000  Uiso   1.00
Zn93   Zn    0.75111   0.82968   0.89062   0.00000  Uiso   1.00
Zn94   Zn    0.99701   0.99973   0.51828   0.00000  Uiso   1.00
Zn95   Zn    0.99843   0.99805   0.89130   0.00000  Uiso   1.00
Zn96   Zn    0.99862   0.99969   0.76762   0.00000  Uiso   1.00
I97    I     0.12993   0.18842   0.08579   0.00000  Uiso   1.00
I98    I     0.11859   0.02076   0.22561   0.00000  Uiso   1.00
I99    I     0.12075   0.01738   0.47086   0.00000  Uiso   1.00
I100   I     0.12851   0.18308   0.33744   0.00000  Uiso   1.00
I101   I     0.12762   0.00389   0.97766   0.00000  Uiso   1.00
I102   I     0.13462   0.18709   0.58351   0.00000  Uiso   1.00
I103   I     0.12061   0.01447   0.72185   0.00000  Uiso   1.00
I104   I     0.12654   0.18255   0.84574   0.00000  Uiso   1.00
I105   I     0.12413   0.34573   0.22313   0.00000  Uiso   1.00
I106   I     0.12057   0.35124   0.47013   0.00000  Uiso   1.00
I107   I     0.12019   0.34819   0.72317   0.00000  Uiso   1.00
I108   I     0.11834   0.34912   0.97722   0.00000  Uiso   1.00
I109   I     0.13046   0.51721   0.09523   0.00000  Uiso   1.00
I110   I     0.12660   0.51663   0.34738   0.00000  Uiso   1.00
I111   I     0.12649   0.51761   0.59422   0.00000  Uiso   1.00
I112   I     0.12341   0.50939   0.85084   0.00000  Uiso   1.00
I113   I     0.12665   0.68408   0.22751   0.00000  Uiso   1.00
I114   I     0.12307   0.68759   0.46415   0.00000  Uiso   1.00
I115   I     0.12338   0.68214   0.72416   0.00000  Uiso   1.00
I116   I     0.11816   0.68593   0.97587   0.00000  Uiso   1.00
I117   I     0.12313   0.84364   0.10602   0.00000  Uiso   1.00
I118   I     0.12824   0.84939   0.34846   0.00000  Uiso   1.00
I119   I     0.13427   0.86155   0.59145   0.00000  Uiso   1.00
I120   I     0.12763   0.84687   0.84456   0.00000  Uiso   1.00
I121   I     0.36823   0.14967   0.21863   0.00000  Uiso   1.00
I122   I     0.38241   0.15733   0.46963   0.00000  Uiso   1.00
I123   I     0.36988   0.15519   0.71765   0.00000  Uiso   1.00
I124   I     0.37311   0.14536   0.96838   0.00000  Uiso   1.00
I125   I     0.38373   0.31383   0.08940   0.00000  Uiso   1.00
I126   I     0.38174   0.31219   0.34138   0.00000  Uiso   1.00
I127   I     0.37102   0.32224   0.60151   0.00000  Uiso   1.00
I128   I     0.38023   0.31084   0.84136   0.00000  Uiso   1.00
I129   I     0.36833   0.48528   0.22077   0.00000  Uiso   1.00
I130   I     0.37356   0.48527   0.47854   0.00000  Uiso   1.00
I131   I     0.36875   0.48315   0.72580   0.00000  Uiso   1.00
I132   I     0.37118   0.48020   0.96866   0.00000  Uiso   1.00
I133   I     0.38232   0.64355   0.09600   0.00000  Uiso   1.00
I134   I     0.37465   0.65683   0.35054   0.00000  Uiso   1.00
I135   I     0.37005   0.64783   0.60326   0.00000  Uiso   1.00
I136   I     0.37649   0.65300   0.85370   0.00000  Uiso   1.00
I137   I     0.37267   0.82475   0.22792   0.00000  Uiso   1.00
I138   I     0.37571   0.98814   0.34298   0.00000  Uiso   1.00
I139   I     0.38207   0.98424   0.09626   0.00000  Uiso   1.00
I140   I     0.37878   0.82146   0.47804   0.00000  Uiso   1.00
I141   I     0.36850   0.81618   0.97608   0.00000  Uiso   1.00
I142   I     0.37182   0.98705   0.84537   0.00000  Uiso   1.00
I143   I     0.37233   0.81632   0.72095   0.00000  Uiso   1.00
I144   I     0.37647   0.98835   0.59681   0.00000  Uiso   1.00
I145   I     0.62544   0.18512   0.34379   0.00000  Uiso   1.00
I146   I     0.62156   0.01707   0.22241   0.00000  Uiso   1.00
I147   I     0.62341   0.02173   0.47572   0.00000  Uiso   1.00
I148   I     0.62341   0.17736   0.09692   0.00000  Uiso   1.00
I149   I     0.62850   0.18676   0.83701   0.00000  Uiso   1.00
I150   I     0.62197   0.18467   0.59593   0.00000  Uiso   1.00
I151   I     0.61610   0.02361   0.71154   0.00000  Uiso   1.00
I152   I     0.61942   0.01815   0.96980   0.00000  Uiso   1.00
I153   I     0.61862   0.36073   0.21924   0.00000  Uiso   1.00
I154   I     0.62655   0.34909   0.47052   0.00000  Uiso   1.00
I155   I     0.62494   0.35572   0.71592   0.00000  Uiso   1.00
I156   I     0.62627   0.34470   0.97631   0.00000  Uiso   1.00
I157   I     0.62724   0.52059   0.08802   0.00000  Uiso   1.00
I158   I     0.62633   0.51470   0.34770   0.00000  Uiso   1.00
I159   I     0.62887   0.52117   0.59445   0.00000  Uiso   1.00
I160   I     0.63271   0.51977   0.85045   0.00000  Uiso   1.00
I161   I     0.62594   0.67899   0.22165   0.00000  Uiso   1.00
I162   I     0.61891   0.67948   0.47492   0.00000  Uiso   1.00
I163   I     0.61809   0.68195   0.72142   0.00000  Uiso   1.00
I164   I     0.62543   0.68226   0.97479   0.00000  Uiso   1.00
I165   I     0.63507   0.84852   0.09698   0.00000  Uiso   1.00
I166   I     0.62905   0.84443   0.34497   0.00000  Uiso   1.00
I167   I     0.63390   0.85236   0.59444   0.00000  Uiso   1.00
I168   I     0.63152   0.84741   0.84096   0.00000  Uiso   1.00
I169   I     0.87676   0.14933   0.21275   0.00000  Uiso   1.00
I170   I     0.86679   0.14793   0.47677   0.00000  Uiso   1.00
I171   I     0.87035   0.14769   0.73213   0.00000  Uiso   1.00
I172   I     0.86925   0.14527   0.96820   0.00000  Uiso   1.00
I173   I     0.87275   0.32237   0.09303   0.00000  Uiso   1.00
I174   I     0.88064   0.31402   0.33693   0.00000  Uiso   1.00
I175   I     0.87988   0.31156   0.58338   0.00000  Uiso   1.00
I176   I     0.88248   0.31315   0.85100   0.00000  Uiso   1.00
I177   I     0.86586   0.48307   0.21833   0.00000  Uiso   1.00
I178   I     0.87282   0.48551   0.47348   0.00000  Uiso   1.00
I179   I     0.87655   0.48118   0.72218   0.00000  Uiso   1.00
I180   I     0.87288   0.48101   0.97087   0.00000  Uiso   1.00
I181   I     0.87471   0.65374   0.10493   0.00000  Uiso   1.00
I182   I     0.88242   0.64999   0.34430   0.00000  Uiso   1.00
I183   I     0.87952   0.65678   0.60187   0.00000  Uiso   1.00
I184   I     0.88115   0.65132   0.84157   0.00000  Uiso   1.00
I185   I     0.87794   0.82248   0.23012   0.00000  Uiso   1.00
I186   I     0.88632   0.98317   0.09567   0.00000  Uiso   1.00
I187   I     0.86642   0.98910   0.36325   0.00000  Uiso   1.00
I188   I     0.86578   0.81060   0.47419   0.00000  Uiso   1.00
I189   I     0.88101   0.97553   0.84189   0.00000  Uiso   1.00
I190   I     0.87702   0.82344   0.97202   0.00000  Uiso   1.00
I191   I     0.88588   0.97301   0.59224   0.00000  Uiso   1.00
I192   I     0.87576   0.81945   0.72419   0.00000  Uiso   1.00
H193   H     0.08796   0.07416   0.14191   0.00000  Uiso   1.00
H194   H     0.14854   0.11267   0.14104   0.00000  Uiso   1.00
H195   H     0.08785   0.08193   0.40218   0.00000  Uiso   1.00
H196   H     0.15218   0.11383   0.39984   0.00000  Uiso   1.00
H197   H     0.18176   0.06505   0.25765   0.00000  Uiso   1.00
H198   H     0.18517   0.05618   0.00660   0.00000  Uiso   1.00
H199   H     0.02633   0.03784   0.20011   0.00000  Uiso   1.00
H200   H     0.00106   0.04716   0.45867   0.00000  Uiso   1.00
H201   H     0.08505   0.08137   0.64344   0.00000  Uiso   1.00
H202   H     0.14368   0.11406   0.64850   0.00000  Uiso   1.00
H203   H     0.08785   0.08054   0.89966   0.00000  Uiso   1.00
H204   H     0.15325   0.11246   0.90357   0.00000  Uiso   1.00
H205   H     0.18439   0.06389   0.75901   0.00000  Uiso   1.00
H206   H     0.17815   0.07276   0.50509   0.00000  Uiso   1.00
H207   H     0.00766   0.04935   0.70092   0.00000  Uiso   1.00
H208   H     0.06747   0.23674   0.12086   0.00000  Uiso   1.00
H209   H     0.16810   0.25235   0.01672   0.00000  Uiso   1.00
H210   H     0.10337   0.27575   0.03043   0.00000  Uiso   1.00
H211   H     0.06641   0.23554   0.37384   0.00000  Uiso   1.00
H212   H     0.15772   0.23900   0.26963   0.00000  Uiso   1.00
H213   H     0.09325   0.26937   0.27353   0.00000  Uiso   1.00
H214   H     0.01794   0.37896   0.44461   0.00000  Uiso   1.00
H215   H     0.23426   0.20872   0.32505   0.00000  Uiso   1.00
H216   H     0.06895   0.23615   0.62577   0.00000  Uiso   1.00
H217   H     0.17037   0.25572   0.50235   0.00000  Uiso   1.00
H218   H     0.10883   0.27674   0.52302   0.00000  Uiso   1.00
H219   H     0.06533   0.23159   0.88932   0.00000  Uiso   1.00
H220   H     0.15913   0.24135   0.77245   0.00000  Uiso   1.00
H221   H     0.09789   0.27060   0.77651   0.00000  Uiso   1.00
H222   H     0.00844   0.37858   0.93878   0.00000  Uiso   1.00
H223   H     0.24651   0.21594   0.82264   0.00000  Uiso   1.00
H224   H     0.24460   0.21404   0.57715   0.00000  Uiso   1.00
H225   H     0.18039   0.39866   0.75808   0.00000  Uiso   1.00
H226   H     0.06993   0.57258   0.12993   0.00000  Uiso   1.00
H227   H     0.15365   0.44010   0.15621   0.00000  Uiso   1.00
H228   H     0.16007   0.57340   0.02376   0.00000  Uiso   1.00
H229   H     0.18649   0.40051   0.26241   0.00000  Uiso   1.00
H230   H     0.06836   0.56922   0.38717   0.00000  Uiso   1.00
H231   H     0.14707   0.44086   0.40865   0.00000  Uiso   1.00
H232   H     0.16127   0.57790   0.27662   0.00000  Uiso   1.00
H233   H     0.17570   0.40382   0.00611   0.00000  Uiso   1.00
H234   H     0.08198   0.41473   0.39289   0.00000  Uiso   1.00
H235   H     0.08969   0.41196   0.15792   0.00000  Uiso   1.00
H236   H     0.24481   0.54869   0.32368   0.00000  Uiso   1.00
H237   H     0.23827   0.53969   0.07276   0.00000  Uiso   1.00
H238   H     0.24969   0.45553   0.45200   0.00000  Uiso   1.00
H239   H     0.06881   0.57022   0.63118   0.00000  Uiso   1.00
H240   H     0.14559   0.44304   0.65706   0.00000  Uiso   1.00
H241   H     0.06644   0.56362   0.88256   0.00000  Uiso   1.00
H242   H     0.14411   0.43427   0.90864   0.00000  Uiso   1.00
H243   H     0.16035   0.57147   0.77596   0.00000  Uiso   1.00
H244   H     0.08559   0.40466   0.89714   0.00000  Uiso   1.00
H245   H     0.18520   0.40449   0.51057   0.00000  Uiso   1.00
H246   H     0.16666   0.57565   0.52614   0.00000  Uiso   1.00
H247   H     0.22446   0.53438   0.82162   0.00000  Uiso   1.00
H248   H     0.24764   0.54740   0.58234   0.00000  Uiso   1.00
H249   H     0.08223   0.41299   0.64705   0.00000  Uiso   1.00
H250   H     0.00999   0.71212   0.44132   0.00000  Uiso   1.00
H251   H     0.17203   0.74413   0.00162   0.00000  Uiso   1.00
H252   H     0.09967   0.60523   0.02619   0.00000  Uiso   1.00
H253   H     0.09178   0.73836   0.15882   0.00000  Uiso   1.00
H254   H     0.15530   0.76388   0.16213   0.00000  Uiso   1.00
H255   H     0.08827   0.74565   0.40197   0.00000  Uiso   1.00
H256   H     0.15257   0.77665   0.41090   0.00000  Uiso   1.00
H257   H     0.00136   0.71441   0.19330   0.00000  Uiso   1.00
H258   H     0.18093   0.74640   0.25438   0.00000  Uiso   1.00
H259   H     0.10309   0.61002   0.27624   0.00000  Uiso   1.00
H260   H     0.00435   0.62082   0.32134   0.00000  Uiso   1.00
H261   H     0.10428   0.61040   0.53207   0.00000  Uiso   1.00
H262   H     0.09424   0.73970   0.65231   0.00000  Uiso   1.00
H263   H     0.14646   0.78020   0.65454   0.00000  Uiso   1.00
H264   H     0.08944   0.74518   0.89963   0.00000  Uiso   1.00
H265   H     0.15297   0.77566   0.90646   0.00000  Uiso   1.00
H266   H     0.18141   0.74064   0.75838   0.00000  Uiso   1.00
H267   H     0.02240   0.70631   0.69807   0.00000  Uiso   1.00
H268   H     0.18550   0.74118   0.50542   0.00000  Uiso   1.00
H269   H     0.09737   0.60440   0.78146   0.00000  Uiso   1.00
H270   H     0.00204   0.71145   0.94947   0.00000  Uiso   1.00
H271   H     0.23790   0.78986   0.70631   0.00000  Uiso   1.00
H272   H     0.06514   0.90207   0.13883   0.00000  Uiso   1.00
H273   H     0.09105   0.92767   0.03187   0.00000  Uiso   1.00
H274   H     0.23285   0.87612   0.07704   0.00000  Uiso   1.00
H275   H     0.06832   0.90268   0.37940   0.00000  Uiso   1.00
H276   H     0.16880   0.91707   0.26798   0.00000  Uiso   1.00
H277   H     0.10522   0.94552   0.28245   0.00000  Uiso   1.00
H278   H     0.15554   0.89985   0.02432   0.00000  Uiso   1.00
H279   H     0.24643   0.88249   0.32951   0.00000  Uiso   1.00
H280   H     0.00151   0.95015   0.08343   0.00000  Uiso   1.00
H281   H     0.06999   0.90558   0.63179   0.00000  Uiso   1.00
H282   H     0.16225   0.92160   0.51799   0.00000  Uiso   1.00
H283   H     0.09357   0.94390   0.52778   0.00000  Uiso   1.00
H284   H     0.06763   0.90116   0.87613   0.00000  Uiso   1.00
H285   H     0.16008   0.91266   0.77629   0.00000  Uiso   1.00
H286   H     0.09504   0.93513   0.78480   0.00000  Uiso   1.00
H287   H     0.24773   0.88493   0.57816   0.00000  Uiso   1.00
H288   H     0.22715   0.87314   0.82696   0.00000  Uiso   1.00
H289   H     0.34133   0.08744   0.14949   0.00000  Uiso   1.00
H290   H     0.40768   0.05748   0.15706   0.00000  Uiso   1.00
H291   H     0.43184   0.10257   0.25572   0.00000  Uiso   1.00
H292   H     0.33747   0.09075   0.39552   0.00000  Uiso   1.00
H293   H     0.40257   0.06109   0.40243   0.00000  Uiso   1.00
H294   H     0.26172   0.12198   0.44956   0.00000  Uiso   1.00
H295   H     0.25333   0.11562   0.19459   0.00000  Uiso   1.00
H296   H     0.43315   0.09209   0.00124   0.00000  Uiso   1.00
H297   H     0.49635   0.04524   0.19778   0.00000  Uiso   1.00
H298   H     0.43076   0.09593   0.49867   0.00000  Uiso   1.00
H299   H     0.33802   0.09808   0.64643   0.00000  Uiso   1.00
H300   H     0.39861   0.06129   0.64903   0.00000  Uiso   1.00
H301   H     0.42970   0.09714   0.74268   0.00000  Uiso   1.00
H302   H     0.33958   0.08972   0.89173   0.00000  Uiso   1.00
H303   H     0.40655   0.06032   0.89473   0.00000  Uiso   1.00
H304   H     0.27159   0.12516   0.94158   0.00000  Uiso   1.00
H305   H     0.26720   0.12442   0.69535   0.00000  Uiso   1.00
H306   H     0.49792   0.04736   0.69681   0.00000  Uiso   1.00
H307   H     0.49786   0.04559   0.95059   0.00000  Uiso   1.00
H308   H     0.35411   0.21893   0.02594   0.00000  Uiso   1.00
H309   H     0.40098   0.39102   0.15504   0.00000  Uiso   1.00
H310   H     0.32229   0.25632   0.12078   0.00000  Uiso   1.00
H311   H     0.40901   0.25170   0.26960   0.00000  Uiso   1.00
H312   H     0.31935   0.26110   0.37374   0.00000  Uiso   1.00
H313   H     0.34932   0.22203   0.27497   0.00000  Uiso   1.00
H314   H     0.41816   0.25517   0.01879   0.00000  Uiso   1.00
H315   H     0.25470   0.20913   0.07294   0.00000  Uiso   1.00
H316   H     0.40694   0.39925   0.40594   0.00000  Uiso   1.00
H317   H     0.47934   0.29656   0.07151   0.00000  Uiso   1.00
H318   H     0.48367   0.38208   0.45391   0.00000  Uiso   1.00
H319   H     0.34229   0.22534   0.52983   0.00000  Uiso   1.00
H320   H     0.31850   0.26636   0.62916   0.00000  Uiso   1.00
H321   H     0.41521   0.25556   0.76902   0.00000  Uiso   1.00
H322   H     0.34838   0.22851   0.77912   0.00000  Uiso   1.00
H323   H     0.32482   0.25268   0.87903   0.00000  Uiso   1.00
H324   H     0.47648   0.29775   0.81968   0.00000  Uiso   1.00
H325   H     0.40329   0.26323   0.52746   0.00000  Uiso   1.00
H326   H     0.39641   0.38825   0.90667   0.00000  Uiso   1.00
H327   H     0.40266   0.39340   0.66167   0.00000  Uiso   1.00
H328   H     0.49566   0.37987   0.94535   0.00000  Uiso   1.00
H329   H     0.49677   0.28876   0.57268   0.00000  Uiso   1.00
H330   H     0.34628   0.55344   0.02698   0.00000  Uiso   1.00
H331   H     0.34465   0.43172   0.40712   0.00000  Uiso   1.00
H332   H     0.42787   0.43318   0.25135   0.00000  Uiso   1.00
H333   H     0.34354   0.56477   0.28316   0.00000  Uiso   1.00
H334   H     0.33944   0.42227   0.15181   0.00000  Uiso   1.00
H335   H     0.40665   0.59313   0.28119   0.00000  Uiso   1.00
H336   H     0.43011   0.43117   0.00593   0.00000  Uiso   1.00
H337   H     0.31875   0.59801   0.12877   0.00000  Uiso   1.00
H338   H     0.40950   0.57907   0.02273   0.00000  Uiso   1.00
H339   H     0.25489   0.45188   0.20060   0.00000  Uiso   1.00
H340   H     0.31365   0.59839   0.38196   0.00000  Uiso   1.00
H341   H     0.34373   0.56814   0.53371   0.00000  Uiso   1.00
H342   H     0.40976   0.58251   0.77498   0.00000  Uiso   1.00
H343   H     0.42444   0.42252   0.75112   0.00000  Uiso   1.00
H344   H     0.34608   0.55900   0.79210   0.00000  Uiso   1.00
H345   H     0.33372   0.41857   0.90211   0.00000  Uiso   1.00
H346   H     0.33870   0.42461   0.65442   0.00000  Uiso   1.00
H347   H     0.25717   0.44987   0.69850   0.00000  Uiso   1.00
H348   H     0.40538   0.59385   0.52509   0.00000  Uiso   1.00
H349   H     0.43182   0.42809   0.51130   0.00000  Uiso   1.00
H350   H     0.25163   0.44985   0.94695   0.00000  Uiso   1.00
H351   H     0.31602   0.59676   0.87982   0.00000  Uiso   1.00
H352   H     0.33522   0.74770   0.14863   0.00000  Uiso   1.00
H353   H     0.40124   0.71925   0.15256   0.00000  Uiso   1.00
H354   H     0.43858   0.77575   0.26695   0.00000  Uiso   1.00
H355   H     0.33743   0.75935   0.40366   0.00000  Uiso   1.00
H356   H     0.39991   0.72478   0.40455   0.00000  Uiso   1.00
H357   H     0.26243   0.78901   0.45977   0.00000  Uiso   1.00
H358   H     0.43370   0.76768   0.01200   0.00000  Uiso   1.00
H359   H     0.49452   0.61858   0.32683   0.00000  Uiso   1.00
H360   H     0.27177   0.79323   0.20391   0.00000  Uiso   1.00
H361   H     0.43603   0.76690   0.51337   0.00000  Uiso   1.00
H362   H     0.33457   0.74974   0.64627   0.00000  Uiso   1.00
H363   H     0.39663   0.71790   0.65464   0.00000  Uiso   1.00
H364   H     0.43465   0.77052   0.76034   0.00000  Uiso   1.00
H365   H     0.34110   0.76641   0.90251   0.00000  Uiso   1.00
H366   H     0.40446   0.73346   0.90811   0.00000  Uiso   1.00
H367   H     0.49411   0.61788   0.57298   0.00000  Uiso   1.00
H368   H     0.49264   0.62030   0.82830   0.00000  Uiso   1.00
H369   H     0.30589   0.60589   0.64919   0.00000  Uiso   1.00
H370   H     0.25317   0.78660   0.95736   0.00000  Uiso   1.00
H371   H     0.41245   0.92761   0.02080   0.00000  Uiso   1.00
H372   H     0.35500   0.89267   0.03145   0.00000  Uiso   1.00
H373   H     0.32524   0.92893   0.12301   0.00000  Uiso   1.00
H374   H     0.40904   0.92689   0.27664   0.00000  Uiso   1.00
H375   H     0.34702   0.90323   0.28407   0.00000  Uiso   1.00
H376   H     0.31949   0.93161   0.37594   0.00000  Uiso   1.00
H377   H     0.48377   0.95751   0.32057   0.00000  Uiso   1.00
H378   H     0.49656   0.95067   0.07441   0.00000  Uiso   1.00
H379   H     0.41212   0.93422   0.52199   0.00000  Uiso   1.00
H380   H     0.34794   0.90408   0.53284   0.00000  Uiso   1.00
H381   H     0.31692   0.93571   0.63754   0.00000  Uiso   1.00
H382   H     0.41468   0.92735   0.77491   0.00000  Uiso   1.00
H383   H     0.35611   0.88848   0.78032   0.00000  Uiso   1.00
H384   H     0.31356   0.93398   0.88708   0.00000  Uiso   1.00
H385   H     0.48145   0.96226   0.56719   0.00000  Uiso   1.00
H386   H     0.48224   0.95526   0.82129   0.00000  Uiso   1.00
H387   H     0.59151   0.07450   0.15022   0.00000  Uiso   1.00
H388   H     0.65680   0.10114   0.15550   0.00000  Uiso   1.00
H389   H     0.58613   0.07911   0.39558   0.00000  Uiso   1.00
H390   H     0.64832   0.11249   0.40317   0.00000  Uiso   1.00
H391   H     0.68340   0.06934   0.25425   0.00000  Uiso   1.00
H392   H     0.50221   0.04963   0.44202   0.00000  Uiso   1.00
H393   H     0.74795   0.12512   0.45545   0.00000  Uiso   1.00
H394   H     0.67898   0.07411   0.00067   0.00000  Uiso   1.00
H395   H     0.58201   0.08894   0.64479   0.00000  Uiso   1.00
H396   H     0.64907   0.11239   0.65726   0.00000  Uiso   1.00
H397   H     0.58810   0.07666   0.89247   0.00000  Uiso   1.00
H398   H     0.65421   0.10736   0.90110   0.00000  Uiso   1.00
H399   H     0.67490   0.07583   0.74386   0.00000  Uiso   1.00
H400   H     0.68639   0.06724   0.51561   0.00000  Uiso   1.00
H401   H     0.73359   0.21365   0.07354   0.00000  Uiso   1.00
H402   H     0.56125   0.22876   0.13992   0.00000  Uiso   1.00
H403   H     0.66141   0.24364   0.02019   0.00000  Uiso   1.00
H404   H     0.59926   0.27425   0.02947   0.00000  Uiso   1.00
H405   H     0.56850   0.23993   0.37916   0.00000  Uiso   1.00
H406   H     0.66237   0.24308   0.27390   0.00000  Uiso   1.00
H407   H     0.60663   0.28199   0.27281   0.00000  Uiso   1.00
H408   H     0.51612   0.37754   0.20300   0.00000  Uiso   1.00
H409   H     0.73227   0.21359   0.32608   0.00000  Uiso   1.00
H410   H     0.50812   0.29264   0.32876   0.00000  Uiso   1.00
H411   H     0.68391   0.39972   0.26916   0.00000  Uiso   1.00
H412   H     0.73130   0.20686   0.56967   0.00000  Uiso   1.00
H413   H     0.56243   0.22918   0.64304   0.00000  Uiso   1.00
H414   H     0.66541   0.24241   0.51791   0.00000  Uiso   1.00
H415   H     0.60231   0.27581   0.52783   0.00000  Uiso   1.00
H416   H     0.56777   0.23754   0.87517   0.00000  Uiso   1.00
H417   H     0.66370   0.24649   0.77127   0.00000  Uiso   1.00
H418   H     0.60182   0.27616   0.78247   0.00000  Uiso   1.00
H419   H     0.50955   0.38048   0.70088   0.00000  Uiso   1.00
H420   H     0.73015   0.20959   0.82154   0.00000  Uiso   1.00
H421   H     0.56752   0.57032   0.12857   0.00000  Uiso   1.00
H422   H     0.65035   0.44356   0.15064   0.00000  Uiso   1.00
H423   H     0.66133   0.57874   0.02361   0.00000  Uiso   1.00
H424   H     0.56507   0.56734   0.38681   0.00000  Uiso   1.00
H425   H     0.64665   0.44683   0.41100   0.00000  Uiso   1.00
H426   H     0.65886   0.57294   0.27443   0.00000  Uiso   1.00
H427   H     0.74365   0.54728   0.07880   0.00000  Uiso   1.00
H428   H     0.58587   0.41238   0.40536   0.00000  Uiso   1.00
H429   H     0.73696   0.54444   0.32113   0.00000  Uiso   1.00
H430   H     0.58367   0.41615   0.14076   0.00000  Uiso   1.00
H431   H     0.56667   0.56958   0.63408   0.00000  Uiso   1.00
H432   H     0.64965   0.44665   0.65316   0.00000  Uiso   1.00
H433   H     0.73401   0.54503   0.57727   0.00000  Uiso   1.00
H434   H     0.73123   0.54170   0.82654   0.00000  Uiso   1.00
H435   H     0.56563   0.56563   0.88341   0.00000  Uiso   1.00
H436   H     0.65688   0.44276   0.90119   0.00000  Uiso   1.00
H437   H     0.66451   0.57902   0.77156   0.00000  Uiso   1.00
H438   H     0.58685   0.41506   0.64792   0.00000  Uiso   1.00
H439   H     0.66454   0.58154   0.51981   0.00000  Uiso   1.00
H440   H     0.59150   0.41184   0.90158   0.00000  Uiso   1.00
H441   H     0.68049   0.40697   0.75653   0.00000  Uiso   1.00
H442   H     0.67732   0.40636   0.50502   0.00000  Uiso   1.00
H443   H     0.68073   0.40635   0.99869   0.00000  Uiso   1.00
H444   H     0.68095   0.73607   0.01014   0.00000  Uiso   1.00
H445   H     0.51175   0.71222   0.20413   0.00000  Uiso   1.00
H446   H     0.59565   0.60478   0.03376   0.00000  Uiso   1.00
H447   H     0.59065   0.74200   0.15397   0.00000  Uiso   1.00
H448   H     0.65598   0.76829   0.16220   0.00000  Uiso   1.00
H449   H     0.59046   0.73972   0.40023   0.00000  Uiso   1.00
H450   H     0.65492   0.77043   0.40220   0.00000  Uiso   1.00
H451   H     0.68392   0.73230   0.25539   0.00000  Uiso   1.00
H452   H     0.50967   0.62213   0.07307   0.00000  Uiso   1.00
H453   H     0.59756   0.60614   0.28109   0.00000  Uiso   1.00
H454   H     0.52161   0.70667   0.44981   0.00000  Uiso   1.00
H455   H     0.59823   0.60805   0.78221   0.00000  Uiso   1.00
H456   H     0.58232   0.74548   0.64759   0.00000  Uiso   1.00
H457   H     0.64947   0.77638   0.65149   0.00000  Uiso   1.00
H458   H     0.51731   0.70524   0.69876   0.00000  Uiso   1.00
H459   H     0.58698   0.74897   0.89950   0.00000  Uiso   1.00
H460   H     0.65194   0.77445   0.90525   0.00000  Uiso   1.00
H461   H     0.68859   0.72523   0.76824   0.00000  Uiso   1.00
H462   H     0.51517   0.71024   0.95201   0.00000  Uiso   1.00
H463   H     0.68293   0.72831   0.51301   0.00000  Uiso   1.00
H464   H     0.60307   0.60345   0.53355   0.00000  Uiso   1.00
H465   H     0.57147   0.90751   0.12935   0.00000  Uiso   1.00
H466   H     0.66248   0.91081   0.01852   0.00000  Uiso   1.00
H467   H     0.60042   0.94443   0.02210   0.00000  Uiso   1.00
H468   H     0.56533   0.89985   0.37746   0.00000  Uiso   1.00
H469   H     0.65923   0.90556   0.28121   0.00000  Uiso   1.00
H470   H     0.59734   0.93586   0.28384   0.00000  Uiso   1.00
H471   H     0.72932   0.87375   0.07618   0.00000  Uiso   1.00
H472   H     0.74298   0.87695   0.32815   0.00000  Uiso   1.00
H473   H     0.56968   0.90296   0.62816   0.00000  Uiso   1.00
H474   H     0.60371   0.94206   0.52526   0.00000  Uiso   1.00
H475   H     0.57071   0.90357   0.87324   0.00000  Uiso   1.00
H476   H     0.65698   0.90969   0.77890   0.00000  Uiso   1.00
H477   H     0.59252   0.93822   0.77619   0.00000  Uiso   1.00
H478   H     0.65988   0.91148   0.51706   0.00000  Uiso   1.00
H479   H     0.74415   0.87374   0.57571   0.00000  Uiso   1.00
H480   H     0.93364   0.09817   0.00581   0.00000  Uiso   1.00
H481   H     0.83345   0.08223   0.14461   0.00000  Uiso   1.00
H482   H     0.89905   0.05466   0.15330   0.00000  Uiso   1.00
H483   H     0.93777   0.10288   0.25694   0.00000  Uiso   1.00
H484   H     0.84290   0.09550   0.39617   0.00000  Uiso   1.00
H485   H     0.90537   0.06305   0.40697   0.00000  Uiso   1.00
H486   H     0.75422   0.11990   0.20665   0.00000  Uiso   1.00
H487   H     0.75389   0.11598   0.94457   0.00000  Uiso   1.00
H488   H     0.83118   0.08282   0.65065   0.00000  Uiso   1.00
H489   H     0.89452   0.05132   0.65729   0.00000  Uiso   1.00
H490   H     0.92892   0.09130   0.76408   0.00000  Uiso   1.00
H491   H     0.82702   0.08012   0.90001   0.00000  Uiso   1.00
H492   H     0.89190   0.04488   0.90544   0.00000  Uiso   1.00
H493   H     0.99861   0.04328   0.95887   0.00000  Uiso   1.00
H494   H     0.75268   0.12572   0.69443   0.00000  Uiso   1.00
H495   H     0.92387   0.08832   0.50941   0.00000  Uiso   1.00
H496   H     0.84516   0.22269   0.03154   0.00000  Uiso   1.00
H497   H     0.80990   0.27695   0.13363   0.00000  Uiso   1.00
H498   H     0.91259   0.25218   0.26737   0.00000  Uiso   1.00
H499   H     0.84521   0.22410   0.26850   0.00000  Uiso   1.00
H500   H     0.81803   0.26527   0.37230   0.00000  Uiso   1.00
H501   H     0.90729   0.25380   0.02904   0.00000  Uiso   1.00
H502   H     0.99957   0.38059   0.19444   0.00000  Uiso   1.00
H503   H     0.89540   0.38331   0.39752   0.00000  Uiso   1.00
H504   H     0.98042   0.28916   0.31896   0.00000  Uiso   1.00
H505   H     0.99041   0.28484   0.06820   0.00000  Uiso   1.00
H506   H     0.90340   0.39363   0.15333   0.00000  Uiso   1.00
H507   H     0.89771   0.38322   0.90310   0.00000  Uiso   1.00
H508   H     0.85019   0.22509   0.52200   0.00000  Uiso   1.00
H509   H     0.81365   0.26774   0.62932   0.00000  Uiso   1.00
H510   H     0.90692   0.26290   0.76694   0.00000  Uiso   1.00
H511   H     0.84423   0.23229   0.77331   0.00000  Uiso   1.00
H512   H     0.82260   0.26032   0.88469   0.00000  Uiso   1.00
H513   H     0.90190   0.38422   0.64653   0.00000  Uiso   1.00
H514   H     0.90929   0.25259   0.51671   0.00000  Uiso   1.00
H515   H     0.99653   0.28327   0.56753   0.00000  Uiso   1.00
H516   H     0.96887   0.29513   0.81826   0.00000  Uiso   1.00
H517   H     0.99535   0.37259   0.69879   0.00000  Uiso   1.00
H518   H     0.84455   0.56934   0.03538   0.00000  Uiso   1.00
H519   H     0.83735   0.41994   0.14673   0.00000  Uiso   1.00
H520   H     0.92398   0.42362   0.25129   0.00000  Uiso   1.00
H521   H     0.84747   0.55171   0.27661   0.00000  Uiso   1.00
H522   H     0.83535   0.41744   0.39600   0.00000  Uiso   1.00
H523   H     0.91192   0.58599   0.27469   0.00000  Uiso   1.00
H524   H     0.75112   0.45820   0.45024   0.00000  Uiso   1.00
H525   H     0.92810   0.43073   0.00271   0.00000  Uiso   1.00
H526   H     0.75227   0.45209   0.19574   0.00000  Uiso   1.00
H527   H     0.82456   0.59658   0.37783   0.00000  Uiso   1.00
H528   H     0.81699   0.59969   0.13754   0.00000  Uiso   1.00
H529   H     0.85101   0.56125   0.52862   0.00000  Uiso   1.00
H530   H     0.83937   0.41489   0.64888   0.00000  Uiso   1.00
H531   H     0.92909   0.42349   0.75914   0.00000  Uiso   1.00
H532   H     0.85341   0.55440   0.77404   0.00000  Uiso   1.00
H533   H     0.83563   0.41795   0.90048   0.00000  Uiso   1.00
H534   H     0.93565   0.43426   0.50960   0.00000  Uiso   1.00
H535   H     0.91397   0.59327   0.52562   0.00000  Uiso   1.00
H536   H     0.75018   0.45483   0.95005   0.00000  Uiso   1.00
H537   H     0.75974   0.45409   0.69866   0.00000  Uiso   1.00
H538   H     0.91649   0.58446   0.76925   0.00000  Uiso   1.00
H539   H     0.84605   0.76325   0.15222   0.00000  Uiso   1.00
H540   H     0.90834   0.73295   0.15562   0.00000  Uiso   1.00
H541   H     0.94350   0.77872   0.26697   0.00000  Uiso   1.00
H542   H     0.84385   0.75725   0.40197   0.00000  Uiso   1.00
H543   H     0.90285   0.72425   0.40157   0.00000  Uiso   1.00
H544   H     0.90674   0.60047   0.02929   0.00000  Uiso   1.00
H545   H     0.78228   0.79311   0.19994   0.00000  Uiso   1.00
H546   H     0.76512   0.79334   0.45347   0.00000  Uiso   1.00
H547   H     0.97456   0.62613   0.06970   0.00000  Uiso   1.00
H548   H     0.84487   0.75858   0.65938   0.00000  Uiso   1.00
H549   H     0.91109   0.73146   0.66120   0.00000  Uiso   1.00
H550   H     0.93940   0.77145   0.76269   0.00000  Uiso   1.00
H551   H     0.83837   0.75661   0.89880   0.00000  Uiso   1.00
H552   H     0.90066   0.72100   0.89824   0.00000  Uiso   1.00
H553   H     0.92749   0.76055   0.50685   0.00000  Uiso   1.00
H554   H     0.75995   0.78238   0.70803   0.00000  Uiso   1.00
H555   H     0.98423   0.61803   0.82289   0.00000  Uiso   1.00
H556   H     0.77503   0.78921   0.95336   0.00000  Uiso   1.00
H557   H     0.81287   0.60470   0.88692   0.00000  Uiso   1.00
H558   H     0.99511   0.62081   0.57002   0.00000  Uiso   1.00
H559   H     0.82004   0.60047   0.62493   0.00000  Uiso   1.00
H560   H     0.92897   0.76206   0.99841   0.00000  Uiso   1.00
H561   H     0.83681   0.90300   0.03737   0.00000  Uiso   1.00
H562   H     0.82233   0.92942   0.13206   0.00000  Uiso   1.00
H563   H     0.90314   0.93650   0.28460   0.00000  Uiso   1.00
H564   H     0.84779   0.89640   0.27901   0.00000  Uiso   1.00
H565   H     0.81515   0.92751   0.39230   0.00000  Uiso   1.00
H566   H     0.90439   0.92193   0.02910   0.00000  Uiso   1.00
H567   H     0.98215   0.95419   0.32681   0.00000  Uiso   1.00
H568   H     0.91769   0.91030   0.52176   0.00000  Uiso   1.00
H569   H     0.85127   0.88620   0.53316   0.00000  Uiso   1.00
H570   H     0.82553   0.91740   0.62736   0.00000  Uiso   1.00
H571   H     0.91306   0.91794   0.77034   0.00000  Uiso   1.00
H572   H     0.84809   0.89252   0.77987   0.00000  Uiso   1.00
H573   H     0.82019   0.92453   0.87340   0.00000  Uiso   1.00
H574   H     0.75307   0.87186   0.82889   0.00000  Uiso   1.00
H575   H     0.98074   0.95835   0.57908   0.00000  Uiso   1.00
H576   H     0.97995   0.96095   0.83065   0.00000  Uiso   1.00
C577   C     0.10719   0.07355   0.10797   0.00000  Uiso   1.00
C578   C     0.14325   0.09350   0.10997   0.00000  Uiso   1.00
C579   C     0.12745   0.04413   0.03026   0.00000  Uiso   1.00
C580   C     0.16126   0.06413   0.03216   0.00000  Uiso   1.00
C581   C     0.06301   0.02964   0.07109   0.00000  Uiso   1.00
C582   C     0.09941   0.04921   0.06838   0.00000  Uiso   1.00
C583   C     0.20492   0.11280   0.06925   0.00000  Uiso   1.00
C584   C     0.16986   0.08987   0.07075   0.00000  Uiso   1.00
C585   C     0.10707   0.07993   0.36788   0.00000  Uiso   1.00
C586   C     0.14423   0.09724   0.36822   0.00000  Uiso   1.00
C587   C     0.12485   0.05163   0.29041   0.00000  Uiso   1.00
C588   C     0.16180   0.06879   0.29036   0.00000  Uiso   1.00
C589   C     0.05790   0.03833   0.32946   0.00000  Uiso   1.00
C590   C     0.09652   0.05763   0.32941   0.00000  Uiso   1.00
C591   C     0.20709   0.11490   0.32710   0.00000  Uiso   1.00
C592   C     0.17199   0.09065   0.32996   0.00000  Uiso   1.00
C593   C     0.18859   0.19897   0.19447   0.00000  Uiso   1.00
C594   C     0.10588   0.07712   0.61348   0.00000  Uiso   1.00
C595   C     0.14132   0.09513   0.61677   0.00000  Uiso   1.00
C596   C     0.12524   0.05402   0.53309   0.00000  Uiso   1.00
C597   C     0.15923   0.07426   0.53472   0.00000  Uiso   1.00
C598   C     0.05938   0.03583   0.57228   0.00000  Uiso   1.00
C599   C     0.09595   0.05626   0.57155   0.00000  Uiso   1.00
C600   C     0.20276   0.11917   0.57590   0.00000  Uiso   1.00
C601   C     0.16688   0.09471   0.57724   0.00000  Uiso   1.00
C602   C     0.10932   0.07556   0.87096   0.00000  Uiso   1.00
C603   C     0.14326   0.09620   0.87069   0.00000  Uiso   1.00
C604   C     0.12492   0.05035   0.78577   0.00000  Uiso   1.00
C605   C     0.16145   0.06834   0.78851   0.00000  Uiso   1.00
C606   C     0.05886   0.03625   0.82820   0.00000  Uiso   1.00
C607   C     0.09751   0.05421   0.82728   0.00000  Uiso   1.00
C608   C     0.20410   0.11738   0.82847   0.00000  Uiso   1.00
C609   C     0.16944   0.09255   0.82925   0.00000  Uiso   1.00
C610   C     0.11167   0.26165   0.48712   0.00000  Uiso   1.00
C611   C     0.06007   0.36905   0.31960   0.00000  Uiso   1.00
C612   C     0.09753   0.39021   0.32109   0.00000  Uiso   1.00
C613   C     0.12217   0.38646   0.03628   0.00000  Uiso   1.00
C614   C     0.12291   0.21651   0.15371   0.00000  Uiso   1.00
C615   C     0.08766   0.23623   0.15335   0.00000  Uiso   1.00
C616   C     0.12820   0.38539   0.28570   0.00000  Uiso   1.00
C617   C     0.15042   0.21825   0.19371   0.00000  Uiso   1.00
C618   C     0.04352   0.28044   0.19595   0.00000  Uiso   1.00
C619   C     0.07603   0.25525   0.19816   0.00000  Uiso   1.00
C620   C     0.13821   0.23867   0.23718   0.00000  Uiso   1.00
C621   C     0.10215   0.25592   0.23917   0.00000  Uiso   1.00
C622   C     0.05566   0.37314   0.07519   0.00000  Uiso   1.00
C623   C     0.12181   0.21582   0.40564   0.00000  Uiso   1.00
C624   C     0.08743   0.23737   0.40930   0.00000  Uiso   1.00
C625   C     0.09489   0.38868   0.07821   0.00000  Uiso   1.00
C626   C     0.15249   0.22026   0.44173   0.00000  Uiso   1.00
C627   C     0.04489   0.28079   0.45326   0.00000  Uiso   1.00
C628   C     0.08159   0.25902   0.45051   0.00000  Uiso   1.00
C629   C     0.14791   0.24667   0.47956   0.00000  Uiso   1.00
C630   C     0.18970   0.20094   0.44209   0.00000  Uiso   1.00
C631   C     0.12207   0.38317   0.78539   0.00000  Uiso   1.00
C632   C     0.14589   0.24388   0.99098   0.00000  Uiso   1.00
C633   C     0.10906   0.26072   0.99783   0.00000  Uiso   1.00
C634   C     0.05859   0.36089   0.82164   0.00000  Uiso   1.00
C635   C     0.09830   0.38532   0.57534   0.00000  Uiso   1.00
C636   C     0.12603   0.22090   0.65229   0.00000  Uiso   1.00
C637   C     0.08994   0.24028   0.65580   0.00000  Uiso   1.00
C638   C     0.12786   0.38304   0.53757   0.00000  Uiso   1.00
C639   C     0.15238   0.22128   0.69298   0.00000  Uiso   1.00
C640   C     0.04274   0.28020   0.70245   0.00000  Uiso   1.00
C641   C     0.07835   0.25793   0.70109   0.00000  Uiso   1.00
C642   C     0.14076   0.24087   0.73856   0.00000  Uiso   1.00
C643   C     0.10488   0.25956   0.74181   0.00000  Uiso   1.00
C644   C     0.06004   0.36652   0.56951   0.00000  Uiso   1.00
C645   C     0.09618   0.38236   0.82541   0.00000  Uiso   1.00
C646   C     0.12397   0.21589   0.91200   0.00000  Uiso   1.00
C647   C     0.08835   0.23652   0.91671   0.00000  Uiso   1.00
C648   C     0.15335   0.21938   0.95014   0.00000  Uiso   1.00
C649   C     0.04531   0.28100   0.95555   0.00000  Uiso   1.00
C650   C     0.08112   0.25921   0.95715   0.00000  Uiso   1.00
C651   C     0.19121   0.20384   0.69375   0.00000  Uiso   1.00
C652   C     0.19068   0.20195   0.94880   0.00000  Uiso   1.00
C653   C     0.10672   0.59121   0.49936   0.00000  Uiso   1.00
C654   C     0.12543   0.55269   0.16052   0.00000  Uiso   1.00
C655   C     0.09059   0.57387   0.16197   0.00000  Uiso   1.00
C656   C     0.14361   0.42353   0.12312   0.00000  Uiso   1.00
C657   C     0.18878   0.53125   0.19736   0.00000  Uiso   1.00
C658   C     0.15175   0.55273   0.20048   0.00000  Uiso   1.00
C659   C     0.16737   0.42821   0.33021   0.00000  Uiso   1.00
C660   C     0.10914   0.59493   0.24368   0.00000  Uiso   1.00
C661   C     0.14191   0.57469   0.24232   0.00000  Uiso   1.00
C662   C     0.10633   0.40641   0.12328   0.00000  Uiso   1.00
C663   C     0.20199   0.44952   0.07927   0.00000  Uiso   1.00
C664   C     0.16880   0.42398   0.08141   0.00000  Uiso   1.00
C665   C     0.12578   0.55343   0.40932   0.00000  Uiso   1.00
C666   C     0.08989   0.57193   0.41517   0.00000  Uiso   1.00
C667   C     0.14060   0.42724   0.37190   0.00000  Uiso   1.00
C668   C     0.18992   0.53313   0.44887   0.00000  Uiso   1.00
C669   C     0.15336   0.55418   0.45062   0.00000  Uiso   1.00
C670   C     0.08145   0.59488   0.20444   0.00000  Uiso   1.00
C671   C     0.08075   0.59270   0.45650   0.00000  Uiso   1.00
C672   C     0.20112   0.45334   0.33223   0.00000  Uiso   1.00
C673   C     0.16257   0.40489   0.28917   0.00000  Uiso   1.00
C674   C     0.10405   0.41041   0.36364   0.00000  Uiso   1.00
C675   C     0.15662   0.40535   0.03733   0.00000  Uiso   1.00
C676   C     0.14320   0.57263   0.49578   0.00000  Uiso   1.00
C677   C     0.10488   0.58955   0.99532   0.00000  Uiso   1.00
C678   C     0.08053   0.58945   0.70681   0.00000  Uiso   1.00
C679   C     0.20277   0.44577   0.83167   0.00000  Uiso   1.00
C680   C     0.12210   0.54916   0.65983   0.00000  Uiso   1.00
C681   C     0.08744   0.57009   0.66471   0.00000  Uiso   1.00
C682   C     0.13925   0.42706   0.62310   0.00000  Uiso   1.00
C683   C     0.18548   0.52482   0.70058   0.00000  Uiso   1.00
C684   C     0.14909   0.54749   0.70092   0.00000  Uiso   1.00
C685   C     0.10508   0.58727   0.74719   0.00000  Uiso   1.00
C686   C     0.13996   0.56954   0.74490   0.00000  Uiso   1.00
C687   C     0.20009   0.45275   0.58055   0.00000  Uiso   1.00
C688   C     0.16558   0.42773   0.58346   0.00000  Uiso   1.00
C689   C     0.12256   0.54654   0.91132   0.00000  Uiso   1.00
C690   C     0.08689   0.56504   0.91249   0.00000  Uiso   1.00
C691   C     0.14222   0.41981   0.87562   0.00000  Uiso   1.00
C692   C     0.18829   0.53055   0.94850   0.00000  Uiso   1.00
C693   C     0.15152   0.55187   0.94986   0.00000  Uiso   1.00
C694   C     0.16853   0.42116   0.83341   0.00000  Uiso   1.00
C695   C     0.10382   0.40889   0.61914   0.00000  Uiso   1.00
C696   C     0.07791   0.58801   0.95447   0.00000  Uiso   1.00
C697   C     0.14023   0.57084   0.99220   0.00000  Uiso   1.00
C698   C     0.16101   0.40545   0.54153   0.00000  Uiso   1.00
C699   C     0.15856   0.40180   0.78921   0.00000  Uiso   1.00
C700   C     0.10569   0.40350   0.86755   0.00000  Uiso   1.00
C701   C     0.04619   0.61796   0.20505   0.00000  Uiso   1.00
C702   C     0.10994   0.73542   0.12440   0.00000  Uiso   1.00
C703   C     0.14575   0.75380   0.12550   0.00000  Uiso   1.00
C704   C     0.12220   0.71913   0.03705   0.00000  Uiso   1.00
C705   C     0.15746   0.73992   0.03764   0.00000  Uiso   1.00
C706   C     0.05799   0.69765   0.07962   0.00000  Uiso   1.00
C707   C     0.09688   0.71569   0.08093   0.00000  Uiso   1.00
C708   C     0.20260   0.78333   0.08415   0.00000  Uiso   1.00
C709   C     0.16806   0.75795   0.08119   0.00000  Uiso   1.00
C710   C     0.04658   0.61837   0.45552   0.00000  Uiso   1.00
C711   C     0.10920   0.74572   0.36976   0.00000  Uiso   1.00
C712   C     0.14454   0.76437   0.37347   0.00000  Uiso   1.00
C713   C     0.12607   0.72471   0.28588   0.00000  Uiso   1.00
C714   C     0.16106   0.74512   0.28711   0.00000  Uiso   1.00
C715   C     0.06176   0.70385   0.32446   0.00000  Uiso   1.00
C716   C     0.09943   0.72654   0.32633   0.00000  Uiso   1.00
C717   C     0.20257   0.79107   0.33041   0.00000  Uiso   1.00
C718   C     0.16946   0.76638   0.33071   0.00000  Uiso   1.00
C719   C     0.04679   0.61528   0.70356   0.00000  Uiso   1.00
C720   C     0.11216   0.74001   0.61817   0.00000  Uiso   1.00
C721   C     0.14370   0.76253   0.62097   0.00000  Uiso   1.00
C722   C     0.13014   0.71997   0.53230   0.00000  Uiso   1.00
C723   C     0.16480   0.74057   0.53618   0.00000  Uiso   1.00
C724   C     0.06573   0.69935   0.57192   0.00000  Uiso   1.00
C725   C     0.10356   0.71960   0.57395   0.00000  Uiso   1.00
C726   C     0.20341   0.78778   0.57752   0.00000  Uiso   1.00
C727   C     0.16981   0.76247   0.57966   0.00000  Uiso   1.00
C728   C     0.04434   0.61311   0.95386   0.00000  Uiso   1.00
C729   C     0.11022   0.73954   0.86991   0.00000  Uiso   1.00
C730   C     0.14696   0.75720   0.87418   0.00000  Uiso   1.00
C731   C     0.13013   0.71448   0.78935   0.00000  Uiso   1.00
C732   C     0.16409   0.73690   0.79047   0.00000  Uiso   1.00
C733   C     0.06170   0.69982   0.82743   0.00000  Uiso   1.00
C734   C     0.10042   0.71747   0.82794   0.00000  Uiso   1.00
C735   C     0.20551   0.78363   0.83246   0.00000  Uiso   1.00
C736   C     0.17333   0.75628   0.83265   0.00000  Uiso   1.00
C737   C     0.14314   0.91513   0.48997   0.00000  Uiso   1.00
C738   C     0.12246   0.88277   0.16459   0.00000  Uiso   1.00
C739   C     0.08661   0.90283   0.16763   0.00000  Uiso   1.00
C740   C     0.19299   0.87015   0.19987   0.00000  Uiso   1.00
C741   C     0.15242   0.88868   0.20132   0.00000  Uiso   1.00
C742   C     0.04866   0.95317   0.20814   0.00000  Uiso   1.00
C743   C     0.08098   0.92755   0.20912   0.00000  Uiso   1.00
C744   C     0.14584   0.91194   0.24226   0.00000  Uiso   1.00
C745   C     0.10888   0.93013   0.24852   0.00000  Uiso   1.00
C746   C     0.12268   0.88336   0.41235   0.00000  Uiso   1.00
C747   C     0.08734   0.90290   0.41273   0.00000  Uiso   1.00
C748   C     0.19053   0.87182   0.45040   0.00000  Uiso   1.00
C749   C     0.15311   0.89134   0.44989   0.00000  Uiso   1.00
C750   C     0.04161   0.94731   0.45252   0.00000  Uiso   1.00
C751   C     0.07716   0.92381   0.45432   0.00000  Uiso   1.00
C752   C     0.10293   0.92876   0.49429   0.00000  Uiso   1.00
C753   C     0.09983   0.91478   0.99886   0.00000  Uiso   1.00
C754   C     0.13619   0.89729   0.99463   0.00000  Uiso   1.00
C755   C     0.12641   0.88882   0.66078   0.00000  Uiso   1.00
C756   C     0.09028   0.90613   0.66463   0.00000  Uiso   1.00
C757   C     0.19144   0.87175   0.69841   0.00000  Uiso   1.00
C758   C     0.15354   0.89173   0.69907   0.00000  Uiso   1.00
C759   C     0.04371   0.94763   0.70593   0.00000  Uiso   1.00
C760   C     0.07768   0.92282   0.70787   0.00000  Uiso   1.00
C761   C     0.14091   0.90645   0.74522   0.00000  Uiso   1.00
C762   C     0.10220   0.92139   0.74962   0.00000  Uiso   1.00
C763   C     0.11983   0.87966   0.90875   0.00000  Uiso   1.00
C764   C     0.08552   0.90121   0.91020   0.00000  Uiso   1.00
C765   C     0.18725   0.86127   0.94923   0.00000  Uiso   1.00
C766   C     0.14769   0.87970   0.94940   0.00000  Uiso   1.00
C767   C     0.04270   0.94728   0.95625   0.00000  Uiso   1.00
C768   C     0.07567   0.91968   0.95454   0.00000  Uiso   1.00
C769   C     0.37814   0.11143   0.03371   0.00000  Uiso   1.00
C770   C     0.41446   0.09320   0.03529   0.00000  Uiso   1.00
C771   C     0.31225   0.12891   0.07356   0.00000  Uiso   1.00
C772   C     0.35187   0.10941   0.07552   0.00000  Uiso   1.00
C773   C     0.45782   0.04871   0.07706   0.00000  Uiso   1.00
C774   C     0.42376   0.07295   0.07960   0.00000  Uiso   1.00
C775   C     0.36355   0.08998   0.12035   0.00000  Uiso   1.00
C776   C     0.40013   0.07468   0.12340   0.00000  Uiso   1.00
C777   C     0.37731   0.11701   0.28265   0.00000  Uiso   1.00
C778   C     0.41257   0.09743   0.28550   0.00000  Uiso   1.00
C779   C     0.31016   0.13032   0.32018   0.00000  Uiso   1.00
C780   C     0.34945   0.11255   0.32283   0.00000  Uiso   1.00
C781   C     0.45863   0.05290   0.32530   0.00000  Uiso   1.00
C782   C     0.42196   0.07606   0.32693   0.00000  Uiso   1.00
C783   C     0.35805   0.09244   0.36470   0.00000  Uiso   1.00
C784   C     0.39412   0.07391   0.36745   0.00000  Uiso   1.00
C785   C     0.37871   0.11997   0.53036   0.00000  Uiso   1.00
C786   C     0.41084   0.09802   0.53280   0.00000  Uiso   1.00
C787   C     0.31325   0.14036   0.57170   0.00000  Uiso   1.00
C788   C     0.35081   0.11951   0.57041   0.00000  Uiso   1.00
C789   C     0.44969   0.04810   0.57204   0.00000  Uiso   1.00
C790   C     0.41878   0.07479   0.57320   0.00000  Uiso   1.00
C791   C     0.35940   0.09894   0.61444   0.00000  Uiso   1.00
C792   C     0.39344   0.07783   0.61627   0.00000  Uiso   1.00
C793   C     0.37474   0.11665   0.77595   0.00000  Uiso   1.00
C794   C     0.40910   0.09508   0.77631   0.00000  Uiso   1.00
C795   C     0.30927   0.13260   0.81982   0.00000  Uiso   1.00
C796   C     0.34933   0.11657   0.81857   0.00000  Uiso   1.00
C797   C     0.45446   0.04922   0.81819   0.00000  Uiso   1.00
C798   C     0.42008   0.07567   0.81829   0.00000  Uiso   1.00
C799   C     0.35956   0.09406   0.86094   0.00000  Uiso   1.00
C800   C     0.39575   0.07567   0.86195   0.00000  Uiso   1.00
C801   C     0.39080   0.25617   0.23825   0.00000  Uiso   1.00
C802   C     0.35461   0.23839   0.23995   0.00000  Uiso   1.00
C803   C     0.37510   0.27877   0.15550   0.00000  Uiso   1.00
C804   C     0.34161   0.25911   0.15531   0.00000  Uiso   1.00
C805   C     0.44166   0.29639   0.19717   0.00000  Uiso   1.00
C806   C     0.40164   0.27708   0.19690   0.00000  Uiso   1.00
C807   C     0.29463   0.21467   0.19662   0.00000  Uiso   1.00
C808   C     0.33051   0.23779   0.19688   0.00000  Uiso   1.00
C809   C     0.45469   0.38238   0.07752   0.00000  Uiso   1.00
C810   C     0.37140   0.28237   0.40828   0.00000  Uiso   1.00
C811   C     0.33672   0.26016   0.40872   0.00000  Uiso   1.00
C812   C     0.43812   0.30061   0.45260   0.00000  Uiso   1.00
C813   C     0.39814   0.28195   0.45151   0.00000  Uiso   1.00
C814   C     0.29213   0.21725   0.44921   0.00000  Uiso   1.00
C815   C     0.32556   0.24160   0.45204   0.00000  Uiso   1.00
C816   C     0.45352   0.38507   0.32081   0.00000  Uiso   1.00
C817   C     0.38363   0.26385   0.49719   0.00000  Uiso   1.00
C818   C     0.34931   0.24240   0.49705   0.00000  Uiso   1.00
C819   C     0.39095   0.26135   0.74113   0.00000  Uiso   1.00
C820   C     0.35484   0.24428   0.74789   0.00000  Uiso   1.00
C821   C     0.36859   0.28767   0.66279   0.00000  Uiso   1.00
C822   C     0.33633   0.26473   0.66421   0.00000  Uiso   1.00
C823   C     0.43564   0.30495   0.69823   0.00000  Uiso   1.00
C824   C     0.39766   0.28471   0.70078   0.00000  Uiso   1.00
C825   C     0.29602   0.21861   0.70464   0.00000  Uiso   1.00
C826   C     0.32828   0.24250   0.70580   0.00000  Uiso   1.00
C827   C     0.45539   0.38486   0.58604   0.00000  Uiso   1.00
C828   C     0.37779   0.27730   0.90604   0.00000  Uiso   1.00
C829   C     0.34461   0.25517   0.91173   0.00000  Uiso   1.00
C830   C     0.44046   0.29681   0.94865   0.00000  Uiso   1.00
C831   C     0.40462   0.27682   0.94700   0.00000  Uiso   1.00
C832   C     0.29938   0.21145   0.95266   0.00000  Uiso   1.00
C833   C     0.33509   0.23616   0.95356   0.00000  Uiso   1.00
C834   C     0.45072   0.38028   0.82797   0.00000  Uiso   1.00
C835   C     0.39744   0.25398   0.98778   0.00000  Uiso   1.00
C836   C     0.36125   0.23503   0.99225   0.00000  Uiso   1.00
C837   C     0.32230   0.58206   0.45970   0.00000  Uiso   1.00
C838   C     0.36159   0.43159   0.37034   0.00000  Uiso   1.00
C839   C     0.29048   0.55454   0.45574   0.00000  Uiso   1.00
C840   C     0.34881   0.58253   0.49935   0.00000  Uiso   1.00
C841   C     0.37783   0.44805   0.03581   0.00000  Uiso   1.00
C842   C     0.41336   0.42980   0.04014   0.00000  Uiso   1.00
C843   C     0.35079   0.58018   0.24958   0.00000  Uiso   1.00
C844   C     0.30936   0.45804   0.07151   0.00000  Uiso   1.00
C845   C     0.34807   0.44409   0.07343   0.00000  Uiso   1.00
C846   C     0.35886   0.42484   0.11917   0.00000  Uiso   1.00
C847   C     0.42073   0.40808   0.08072   0.00000  Uiso   1.00
C848   C     0.29161   0.55513   0.20657   0.00000  Uiso   1.00
C849   C     0.32503   0.58101   0.20779   0.00000  Uiso   1.00
C850   C     0.37513   0.45262   0.28583   0.00000  Uiso   1.00
C851   C     0.41017   0.43321   0.28554   0.00000  Uiso   1.00
C852   C     0.41943   0.41007   0.32487   0.00000  Uiso   1.00
C853   C     0.30841   0.46538   0.32500   0.00000  Uiso   1.00
C854   C     0.34806   0.44844   0.32625   0.00000  Uiso   1.00
C855   C     0.33491   0.59971   0.16262   0.00000  Uiso   1.00
C856   C     0.39465   0.40742   0.12047   0.00000  Uiso   1.00
C857   C     0.38750   0.59595   0.24793   0.00000  Uiso   1.00
C858   C     0.39860   0.41198   0.36987   0.00000  Uiso   1.00
C859   C     0.32570   0.57226   0.95385   0.00000  Uiso   1.00
C860   C     0.38676   0.58992   0.74980   0.00000  Uiso   1.00
C861   C     0.39099   0.40306   0.87293   0.00000  Uiso   1.00
C862   C     0.29268   0.54655   0.95142   0.00000  Uiso   1.00
C863   C     0.37772   0.44883   0.54036   0.00000  Uiso   1.00
C864   C     0.41229   0.42846   0.54220   0.00000  Uiso   1.00
C865   C     0.34974   0.57599   0.75844   0.00000  Uiso   1.00
C866   C     0.31029   0.46548   0.57596   0.00000  Uiso   1.00
C867   C     0.34826   0.44576   0.57782   0.00000  Uiso   1.00
C868   C     0.39517   0.40731   0.62541   0.00000  Uiso   1.00
C869   C     0.35686   0.42365   0.62098   0.00000  Uiso   1.00
C870   C     0.39024   0.58343   0.98986   0.00000  Uiso   1.00
C871   C     0.28796   0.55158   0.71401   0.00000  Uiso   1.00
C872   C     0.32124   0.57844   0.71914   0.00000  Uiso   1.00
C873   C     0.37250   0.44639   0.78853   0.00000  Uiso   1.00
C874   C     0.35613   0.42239   0.87037   0.00000  Uiso   1.00
C875   C     0.40719   0.42572   0.78673   0.00000  Uiso   1.00
C876   C     0.42213   0.40997   0.58569   0.00000  Uiso   1.00
C877   C     0.30795   0.46018   0.82678   0.00000  Uiso   1.00
C878   C     0.34652   0.44357   0.82907   0.00000  Uiso   1.00
C879   C     0.35261   0.56704   0.99294   0.00000  Uiso   1.00
C880   C     0.41672   0.40559   0.82961   0.00000  Uiso   1.00
C881   C     0.33478   0.59571   0.91495   0.00000  Uiso   1.00
C882   C     0.36829   0.61990   0.41169   0.00000  Uiso   1.00
C883   C     0.37239   0.61555   0.16220   0.00000  Uiso   1.00
C884   C     0.39471   0.61886   0.45208   0.00000  Uiso   1.00
C885   C     0.43705   0.63486   0.20384   0.00000  Uiso   1.00
C886   C     0.37512   0.77802   0.03750   0.00000  Uiso   1.00
C887   C     0.41188   0.76328   0.04158   0.00000  Uiso   1.00
C888   C     0.34756   0.77395   0.07688   0.00000  Uiso   1.00
C889   C     0.45599   0.71800   0.08266   0.00000  Uiso   1.00
C890   C     0.42190   0.74163   0.08348   0.00000  Uiso   1.00
C891   C     0.35768   0.75306   0.11938   0.00000  Uiso   1.00
C892   C     0.39370   0.73579   0.12217   0.00000  Uiso   1.00
C893   C     0.43468   0.63353   0.45036   0.00000  Uiso   1.00
C894   C     0.41837   0.77024   0.29519   0.00000  Uiso   1.00
C895   C     0.38213   0.79008   0.29159   0.00000  Uiso   1.00
C896   C     0.35142   0.78274   0.32812   0.00000  Uiso   1.00
C897   C     0.45715   0.71954   0.33399   0.00000  Uiso   1.00
C898   C     0.42302   0.74586   0.33496   0.00000  Uiso   1.00
C899   C     0.35813   0.76044   0.37013   0.00000  Uiso   1.00
C900   C     0.39381   0.74229   0.37216   0.00000  Uiso   1.00
C901   C     0.39862   0.61548   0.20543   0.00000  Uiso   1.00
C902   C     0.33305   0.60101   0.41449   0.00000  Uiso   1.00
C903   C     0.30943   0.79435   0.07737   0.00000  Uiso   1.00
C904   C     0.38299   0.60103   0.49584   0.00000  Uiso   1.00
C905   C     0.39541   0.61191   0.70775   0.00000  Uiso   1.00
C906   C     0.40006   0.60783   0.95224   0.00000  Uiso   1.00
C907   C     0.43572   0.62918   0.70554   0.00000  Uiso   1.00
C908   C     0.37660   0.78188   0.53947   0.00000  Uiso   1.00
C909   C     0.41236   0.76332   0.54293   0.00000  Uiso   1.00
C910   C     0.36527   0.61557   0.67062   0.00000  Uiso   1.00
C911   C     0.34795   0.77766   0.57647   0.00000  Uiso   1.00
C912   C     0.45334   0.71362   0.58290   0.00000  Uiso   1.00
C913   C     0.42080   0.74059   0.58515   0.00000  Uiso   1.00
C914   C     0.35682   0.75392   0.61775   0.00000  Uiso   1.00
C915   C     0.39247   0.73608   0.62341   0.00000  Uiso   1.00
C916   C     0.43653   0.62984   0.95310   0.00000  Uiso   1.00
C917   C     0.37727   0.78377   0.78418   0.00000  Uiso   1.00
C918   C     0.41377   0.76815   0.78982   0.00000  Uiso   1.00
C919   C     0.37082   0.61365   0.91427   0.00000  Uiso   1.00
C920   C     0.35045   0.78314   0.82449   0.00000  Uiso   1.00
C921   C     0.45328   0.71914   0.83281   0.00000  Uiso   1.00
C922   C     0.42337   0.74738   0.83372   0.00000  Uiso   1.00
C923   C     0.36152   0.76448   0.86942   0.00000  Uiso   1.00
C924   C     0.39873   0.74774   0.87508   0.00000  Uiso   1.00
C925   C     0.32875   0.60064   0.67763   0.00000  Uiso   1.00
C926   C     0.31005   0.79881   0.57711   0.00000  Uiso   1.00
C927   C     0.38972   0.93177   0.24377   0.00000  Uiso   1.00
C928   C     0.35461   0.91322   0.24515   0.00000  Uiso   1.00
C929   C     0.37878   0.94749   0.15702   0.00000  Uiso   1.00
C930   C     0.34465   0.92701   0.15657   0.00000  Uiso   1.00
C931   C     0.44226   0.96611   0.19859   0.00000  Uiso   1.00
C932   C     0.40394   0.94747   0.19877   0.00000  Uiso   1.00
C933   C     0.29927   0.88251   0.20230   0.00000  Uiso   1.00
C934   C     0.33153   0.90961   0.20197   0.00000  Uiso   1.00
C935   C     0.37189   0.95646   0.40832   0.00000  Uiso   1.00
C936   C     0.33784   0.93499   0.41018   0.00000  Uiso   1.00
C937   C     0.43735   0.97692   0.44788   0.00000  Uiso   1.00
C938   C     0.39963   0.95714   0.44884   0.00000  Uiso   1.00
C939   C     0.29875   0.88757   0.45469   0.00000  Uiso   1.00
C940   C     0.33103   0.91466   0.45476   0.00000  Uiso   1.00
C941   C     0.39092   0.93508   0.49023   0.00000  Uiso   1.00
C942   C     0.31255   0.80134   0.32565   0.00000  Uiso   1.00
C943   C     0.35751   0.91653   0.49538   0.00000  Uiso   1.00
C944   C     0.39474   0.92750   0.74367   0.00000  Uiso   1.00
C945   C     0.35839   0.90700   0.74864   0.00000  Uiso   1.00
C946   C     0.37301   0.95312   0.66182   0.00000  Uiso   1.00
C947   C     0.33878   0.93213   0.66620   0.00000  Uiso   1.00
C948   C     0.43994   0.96811   0.69602   0.00000  Uiso   1.00
C949   C     0.40205   0.94863   0.69838   0.00000  Uiso   1.00
C950   C     0.29901   0.88243   0.70674   0.00000  Uiso   1.00
C951   C     0.33148   0.90862   0.70711   0.00000  Uiso   1.00
C952   C     0.36912   0.95545   0.91179   0.00000  Uiso   1.00
C953   C     0.33546   0.93338   0.91619   0.00000  Uiso   1.00
C954   C     0.43823   0.97027   0.95071   0.00000  Uiso   1.00
C955   C     0.39888   0.95166   0.95006   0.00000  Uiso   1.00
C956   C     0.29379   0.88362   0.95887   0.00000  Uiso   1.00
C957   C     0.32861   0.90993   0.95905   0.00000  Uiso   1.00
C958   C     0.35672   0.90885   0.99699   0.00000  Uiso   1.00
C959   C     0.39175   0.92899   0.99155   0.00000  Uiso   1.00
C960   C     0.31191   0.80041   0.82313   0.00000  Uiso   1.00
C961   C     0.61040   0.07225   0.11747   0.00000  Uiso   1.00
C962   C     0.64746   0.08860   0.12027   0.00000  Uiso   1.00
C963   C     0.62432   0.05421   0.03091   0.00000  Uiso   1.00
C964   C     0.65787   0.07452   0.03184   0.00000  Uiso   1.00
C965   C     0.56069   0.03410   0.07486   0.00000  Uiso   1.00
C966   C     0.59961   0.05365   0.07466   0.00000  Uiso   1.00
C967   C     0.70682   0.11372   0.07386   0.00000  Uiso   1.00
C968   C     0.67067   0.09192   0.07604   0.00000  Uiso   1.00
C969   C     0.60855   0.07625   0.36636   0.00000  Uiso   1.00
C970   C     0.64437   0.09550   0.36950   0.00000  Uiso   1.00
C971   C     0.62853   0.05348   0.28451   0.00000  Uiso   1.00
C972   C     0.66363   0.07141   0.28709   0.00000  Uiso   1.00
C973   C     0.56360   0.03487   0.32098   0.00000  Uiso   1.00
C974   C     0.60132   0.05551   0.32425   0.00000  Uiso   1.00
C975   C     0.70309   0.12175   0.32698   0.00000  Uiso   1.00
C976   C     0.67156   0.09491   0.32818   0.00000  Uiso   1.00
C977   C     0.68782   0.19804   0.44695   0.00000  Uiso   1.00
C978   C     0.68654   0.19723   0.20007   0.00000  Uiso   1.00
C979   C     0.60575   0.08202   0.61718   0.00000  Uiso   1.00
C980   C     0.64222   0.09692   0.62305   0.00000  Uiso   1.00
C981   C     0.62860   0.05328   0.53886   0.00000  Uiso   1.00
C982   C     0.66392   0.06903   0.54565   0.00000  Uiso   1.00
C983   C     0.56003   0.04213   0.57022   0.00000  Uiso   1.00
C984   C     0.59835   0.06089   0.57365   0.00000  Uiso   1.00
C985   C     0.70010   0.12197   0.58140   0.00000  Uiso   1.00
C986   C     0.67048   0.09187   0.58637   0.00000  Uiso   1.00
C987   C     0.61013   0.07135   0.86521   0.00000  Uiso   1.00
C988   C     0.64586   0.09043   0.86702   0.00000  Uiso   1.00
C989   C     0.62419   0.05332   0.77699   0.00000  Uiso   1.00
C990   C     0.65645   0.07539   0.77718   0.00000  Uiso   1.00
C991   C     0.56063   0.03097   0.82108   0.00000  Uiso   1.00
C992   C     0.59971   0.05015   0.82129   0.00000  Uiso   1.00
C993   C     0.70215   0.11897   0.81873   0.00000  Uiso   1.00
C994   C     0.66778   0.09372   0.82134   0.00000  Uiso   1.00
C995   C     0.68681   0.19785   0.94884   0.00000  Uiso   1.00
C996   C     0.62375   0.38702   0.29144   0.00000  Uiso   1.00
C997   C     0.62491   0.38647   0.02977   0.00000  Uiso   1.00
C998   C     0.59595   0.39042   0.32969   0.00000  Uiso   1.00
C999   C     0.60848   0.26063   0.49464   0.00000  Uiso   1.00
C1000  C     0.55977   0.36766   0.32898   0.00000  Uiso   1.00
C1001  C     0.59741   0.39001   0.07027   0.00000  Uiso   1.00
C1002  C     0.61988   0.21149   0.16344   0.00000  Uiso   1.00
C1003  C     0.58546   0.23304   0.16656   0.00000  Uiso   1.00
C1004  C     0.64934   0.21713   0.20013   0.00000  Uiso   1.00
C1005  C     0.54783   0.28613   0.20329   0.00000  Uiso   1.00
C1006  C     0.58166   0.26028   0.20296   0.00000  Uiso   1.00
C1007  C     0.64270   0.24081   0.24099   0.00000  Uiso   1.00
C1008  C     0.60777   0.26191   0.24231   0.00000  Uiso   1.00
C1009  C     0.55877   0.36970   0.07274   0.00000  Uiso   1.00
C1010  C     0.62331   0.21984   0.40579   0.00000  Uiso   1.00
C1011  C     0.58926   0.24019   0.40958   0.00000  Uiso   1.00
C1012  C     0.65060   0.21882   0.44751   0.00000  Uiso   1.00
C1013  C     0.54760   0.28753   0.45464   0.00000  Uiso   1.00
C1014  C     0.58175   0.26102   0.45380   0.00000  Uiso   1.00
C1015  C     0.64281   0.24002   0.49036   0.00000  Uiso   1.00
C1016  C     0.59923   0.39002   0.82585   0.00000  Uiso   1.00
C1017  C     0.55757   0.37387   0.82480   0.00000  Uiso   1.00
C1018  C     0.59657   0.38925   0.57196   0.00000  Uiso   1.00
C1019  C     0.61940   0.21715   0.66406   0.00000  Uiso   1.00
C1020  C     0.58250   0.23236   0.67143   0.00000  Uiso   1.00
C1021  C     0.62667   0.38807   0.78369   0.00000  Uiso   1.00
C1022  C     0.64945   0.22068   0.69969   0.00000  Uiso   1.00
C1023  C     0.54356   0.28196   0.70739   0.00000  Uiso   1.00
C1024  C     0.57590   0.25542   0.71101   0.00000  Uiso   1.00
C1025  C     0.64276   0.24387   0.74032   0.00000  Uiso   1.00
C1026  C     0.60508   0.25837   0.74841   0.00000  Uiso   1.00
C1027  C     0.55902   0.36982   0.57272   0.00000  Uiso   1.00
C1028  C     0.62500   0.38778   0.53182   0.00000  Uiso   1.00
C1029  C     0.62202   0.21484   0.90804   0.00000  Uiso   1.00
C1030  C     0.58700   0.23697   0.90902   0.00000  Uiso   1.00
C1031  C     0.64880   0.21643   0.94860   0.00000  Uiso   1.00
C1032  C     0.54488   0.28470   0.95331   0.00000  Uiso   1.00
C1033  C     0.57896   0.25837   0.95158   0.00000  Uiso   1.00
C1034  C     0.60545   0.25823   0.99273   0.00000  Uiso   1.00
C1035  C     0.64079   0.23724   0.99103   0.00000  Uiso   1.00
C1036  C     0.68765   0.20195   0.69755   0.00000  Uiso   1.00
C1037  C     0.60559   0.41058   0.37415   0.00000  Uiso   1.00
C1038  C     0.66015   0.40797   0.03081   0.00000  Uiso   1.00
C1039  C     0.66115   0.40389   0.29708   0.00000  Uiso   1.00
C1040  C     0.62047   0.54854   0.15924   0.00000  Uiso   1.00
C1041  C     0.58639   0.57054   0.16298   0.00000  Uiso   1.00
C1042  C     0.64053   0.43140   0.11261   0.00000  Uiso   1.00
C1043  C     0.68677   0.52962   0.19921   0.00000  Uiso   1.00
C1044  C     0.64786   0.54862   0.19979   0.00000  Uiso   1.00
C1045  C     0.63891   0.56981   0.24436   0.00000  Uiso   1.00
C1046  C     0.57577   0.58924   0.20618   0.00000  Uiso   1.00
C1047  C     0.70169   0.45485   0.07318   0.00000  Uiso   1.00
C1048  C     0.66760   0.43059   0.07129   0.00000  Uiso   1.00
C1049  C     0.62276   0.55053   0.41363   0.00000  Uiso   1.00
C1050  C     0.58678   0.56946   0.41676   0.00000  Uiso   1.00
C1051  C     0.64154   0.42933   0.38018   0.00000  Uiso   1.00
C1052  C     0.68997   0.53579   0.44817   0.00000  Uiso   1.00
C1053  C     0.65168   0.55510   0.45035   0.00000  Uiso   1.00
C1054  C     0.60578   0.41195   0.11200   0.00000  Uiso   1.00
C1055  C     0.57776   0.58991   0.45960   0.00000  Uiso   1.00
C1056  C     0.66684   0.42765   0.33859   0.00000  Uiso   1.00
C1057  C     0.70169   0.45119   0.33415   0.00000  Uiso   1.00
C1058  C     0.60159   0.58859   0.24837   0.00000  Uiso   1.00
C1059  C     0.64247   0.57638   0.49235   0.00000  Uiso   1.00
C1060  C     0.60617   0.59110   0.49762   0.00000  Uiso   1.00
C1061  C     0.60473   0.59143   0.99813   0.00000  Uiso   1.00
C1062  C     0.65836   0.40728   0.53756   0.00000  Uiso   1.00
C1063  C     0.57774   0.59089   0.95681   0.00000  Uiso   1.00
C1064  C     0.62282   0.55414   0.66087   0.00000  Uiso   1.00
C1065  C     0.58805   0.57214   0.66501   0.00000  Uiso   1.00
C1066  C     0.64422   0.43014   0.61830   0.00000  Uiso   1.00
C1067  C     0.68972   0.53561   0.69856   0.00000  Uiso   1.00
C1068  C     0.65229   0.55627   0.69905   0.00000  Uiso   1.00
C1069  C     0.57873   0.58973   0.70929   0.00000  Uiso   1.00
C1070  C     0.64284   0.57562   0.74333   0.00000  Uiso   1.00
C1071  C     0.70576   0.44940   0.57495   0.00000  Uiso   1.00
C1072  C     0.66935   0.42796   0.57809   0.00000  Uiso   1.00
C1073  C     0.62410   0.55225   0.91107   0.00000  Uiso   1.00
C1074  C     0.58752   0.57062   0.91284   0.00000  Uiso   1.00
C1075  C     0.64676   0.42750   0.86962   0.00000  Uiso   1.00
C1076  C     0.69201   0.53754   0.95020   0.00000  Uiso   1.00
C1077  C     0.65293   0.55623   0.95125   0.00000  Uiso   1.00
C1078  C     0.61275   0.40662   0.86965   0.00000  Uiso   1.00
C1079  C     0.66992   0.42899   0.82866   0.00000  Uiso   1.00
C1080  C     0.60633   0.59221   0.74969   0.00000  Uiso   1.00
C1081  C     0.70183   0.45736   0.82613   0.00000  Uiso   1.00
C1082  C     0.66087   0.40979   0.78567   0.00000  Uiso   1.00
C1083  C     0.64174   0.57681   0.99340   0.00000  Uiso   1.00
C1084  C     0.60710   0.41262   0.61601   0.00000  Uiso   1.00
C1085  C     0.54298   0.61651   0.20612   0.00000  Uiso   1.00
C1086  C     0.61077   0.73852   0.12297   0.00000  Uiso   1.00
C1087  C     0.64729   0.75451   0.12814   0.00000  Uiso   1.00
C1088  C     0.62720   0.71551   0.04058   0.00000  Uiso   1.00
C1089  C     0.66121   0.73710   0.04117   0.00000  Uiso   1.00
C1090  C     0.56296   0.69742   0.07870   0.00000  Uiso   1.00
C1091  C     0.60097   0.71756   0.08021   0.00000  Uiso   1.00
C1092  C     0.70637   0.78054   0.08332   0.00000  Uiso   1.00
C1093  C     0.67104   0.75605   0.08575   0.00000  Uiso   1.00
C1094  C     0.54186   0.61478   0.45856   0.00000  Uiso   1.00
C1095  C     0.61055   0.73777   0.36789   0.00000  Uiso   1.00
C1096  C     0.64723   0.75492   0.36926   0.00000  Uiso   1.00
C1097  C     0.63036   0.71183   0.28561   0.00000  Uiso   1.00
C1098  C     0.66526   0.73129   0.28793   0.00000  Uiso   1.00
C1099  C     0.56277   0.69621   0.32690   0.00000  Uiso   1.00
C1100  C     0.60364   0.71298   0.32719   0.00000  Uiso   1.00
C1101  C     0.70906   0.77631   0.33008   0.00000  Uiso   1.00
C1102  C     0.67421   0.75340   0.32937   0.00000  Uiso   1.00
C1103  C     0.54294   0.61336   0.70914   0.00000  Uiso   1.00
C1104  C     0.60569   0.74023   0.61965   0.00000  Uiso   1.00
C1105  C     0.64195   0.75705   0.62194   0.00000  Uiso   1.00
C1106  C     0.62787   0.71168   0.53945   0.00000  Uiso   1.00
C1107  C     0.66185   0.73099   0.54250   0.00000  Uiso   1.00
C1108  C     0.56216   0.69326   0.57587   0.00000  Uiso   1.00
C1109  C     0.59868   0.71471   0.57920   0.00000  Uiso   1.00
C1110  C     0.70699   0.77633   0.58179   0.00000  Uiso   1.00
C1111  C     0.67121   0.75311   0.58378   0.00000  Uiso   1.00
C1112  C     0.54602   0.61796   0.95341   0.00000  Uiso   1.00
C1113  C     0.60897   0.73958   0.87099   0.00000  Uiso   1.00
C1114  C     0.64707   0.75487   0.87609   0.00000  Uiso   1.00
C1115  C     0.62677   0.71403   0.78812   0.00000  Uiso   1.00
C1116  C     0.66574   0.72910   0.79354   0.00000  Uiso   1.00
C1117  C     0.56052   0.70074   0.82607   0.00000  Uiso   1.00
C1118  C     0.59844   0.71795   0.82761   0.00000  Uiso   1.00
C1119  C     0.70559   0.77969   0.83394   0.00000  Uiso   1.00
C1120  C     0.67299   0.75174   0.83623   0.00000  Uiso   1.00
C1121  C     0.62733   0.88362   0.16031   0.00000  Uiso   1.00
C1122  C     0.59309   0.90583   0.16232   0.00000  Uiso   1.00
C1123  C     0.69067   0.86485   0.20340   0.00000  Uiso   1.00
C1124  C     0.65238   0.88399   0.20327   0.00000  Uiso   1.00
C1125  C     0.54844   0.95078   0.20394   0.00000  Uiso   1.00
C1126  C     0.58227   0.92537   0.20591   0.00000  Uiso   1.00
C1127  C     0.64146   0.90473   0.24702   0.00000  Uiso   1.00
C1128  C     0.60687   0.92299   0.24804   0.00000  Uiso   1.00
C1129  C     0.62371   0.88281   0.40427   0.00000  Uiso   1.00
C1130  C     0.58741   0.90310   0.40820   0.00000  Uiso   1.00
C1131  C     0.68845   0.86602   0.44551   0.00000  Uiso   1.00
C1132  C     0.65134   0.88677   0.44353   0.00000  Uiso   1.00
C1133  C     0.54363   0.94804   0.44870   0.00000  Uiso   1.00
C1134  C     0.57879   0.92457   0.44993   0.00000  Uiso   1.00
C1135  C     0.60803   0.92647   0.48775   0.00000  Uiso   1.00
C1136  C     0.64342   0.90991   0.48450   0.00000  Uiso   1.00
C1137  C     0.63892   0.90321   0.99116   0.00000  Uiso   1.00
C1138  C     0.62601   0.88600   0.65813   0.00000  Uiso   1.00
C1139  C     0.58992   0.90457   0.65875   0.00000  Uiso   1.00
C1140  C     0.68913   0.86700   0.70075   0.00000  Uiso   1.00
C1141  C     0.65192   0.88758   0.70096   0.00000  Uiso   1.00
C1142  C     0.54664   0.95021   0.69575   0.00000  Uiso   1.00
C1143  C     0.57931   0.92506   0.69920   0.00000  Uiso   1.00
C1144  C     0.64077   0.90860   0.74367   0.00000  Uiso   1.00
C1145  C     0.60298   0.92579   0.74188   0.00000  Uiso   1.00
C1146  C     0.61908   0.87571   0.91044   0.00000  Uiso   1.00
C1147  C     0.58718   0.89962   0.90745   0.00000  Uiso   1.00
C1148  C     0.68483   0.85964   0.94924   0.00000  Uiso   1.00
C1149  C     0.64584   0.87893   0.95095   0.00000  Uiso   1.00
C1150  C     0.54638   0.95089   0.94945   0.00000  Uiso   1.00
C1151  C     0.57760   0.92287   0.94914   0.00000  Uiso   1.00
C1152  C     0.60357   0.92339   0.99195   0.00000  Uiso   1.00
C1153  C     0.87576   0.11106   0.03328   0.00000  Uiso   1.00
C1154  C     0.91196   0.09285   0.03622   0.00000  Uiso   1.00
C1155  C     0.80898   0.12967   0.07288   0.00000  Uiso   1.00
C1156  C     0.84557   0.10622   0.07212   0.00000  Uiso   1.00
C1157  C     0.95499   0.04822   0.07955   0.00000  Uiso   1.00
C1158  C     0.92118   0.07293   0.07924   0.00000  Uiso   1.00
C1159  C     0.85645   0.08695   0.11547   0.00000  Uiso   1.00
C1160  C     0.89562   0.07317   0.11951   0.00000  Uiso   1.00
C1161  C     0.88018   0.11709   0.28128   0.00000  Uiso   1.00
C1162  C     0.91744   0.10043   0.28776   0.00000  Uiso   1.00
C1163  C     0.81159   0.13254   0.32259   0.00000  Uiso   1.00
C1164  C     0.85073   0.11416   0.32091   0.00000  Uiso   1.00
C1165  C     0.95875   0.05353   0.33098   0.00000  Uiso   1.00
C1166  C     0.92461   0.07853   0.33099   0.00000  Uiso   1.00
C1167  C     0.86163   0.09497   0.36485   0.00000  Uiso   1.00
C1168  C     0.89771   0.07846   0.36952   0.00000  Uiso   1.00
C1169  C     0.87031   0.11200   0.53658   0.00000  Uiso   1.00
C1170  C     0.90530   0.09109   0.54070   0.00000  Uiso   1.00
C1171  C     0.80681   0.13376   0.57803   0.00000  Uiso   1.00
C1172  C     0.84302   0.11056   0.57706   0.00000  Uiso   1.00
C1173  C     0.94873   0.04416   0.58280   0.00000  Uiso   1.00
C1174  C     0.91369   0.06901   0.58259   0.00000  Uiso   1.00
C1175  C     0.85182   0.08842   0.61938   0.00000  Uiso   1.00
C1176  C     0.88878   0.07083   0.62432   0.00000  Uiso   1.00
C1177  C     0.87213   0.10906   0.79125   0.00000  Uiso   1.00
C1178  C     0.90443   0.08806   0.79184   0.00000  Uiso   1.00
C1179  C     0.80603   0.12814   0.82741   0.00000  Uiso   1.00
C1180  C     0.84203   0.10569   0.82845   0.00000  Uiso   1.00
C1181  C     0.94562   0.04201   0.83175   0.00000  Uiso   1.00
C1182  C     0.91242   0.06653   0.83304   0.00000  Uiso   1.00
C1183  C     0.84900   0.08340   0.87107   0.00000  Uiso   1.00
C1184  C     0.88472   0.06401   0.87416   0.00000  Uiso   1.00
C1185  C     0.89244   0.25971   0.23598   0.00000  Uiso   1.00
C1186  C     0.85552   0.24158   0.23842   0.00000  Uiso   1.00
C1187  C     0.87062   0.28722   0.15591   0.00000  Uiso   1.00
C1188  C     0.83340   0.27147   0.16307   0.00000  Uiso   1.00
C1189  C     0.93844   0.30091   0.19377   0.00000  Uiso   1.00
C1190  C     0.90007   0.28258   0.19320   0.00000  Uiso   1.00
C1191  C     0.79267   0.22124   0.19941   0.00000  Uiso   1.00
C1192  C     0.82531   0.24673   0.20090   0.00000  Uiso   1.00
C1193  C     0.95156   0.38012   0.07396   0.00000  Uiso   1.00
C1194  C     0.87227   0.28516   0.40391   0.00000  Uiso   1.00
C1195  C     0.83714   0.26536   0.40490   0.00000  Uiso   1.00
C1196  C     0.93855   0.29966   0.44729   0.00000  Uiso   1.00
C1197  C     0.89995   0.28205   0.44558   0.00000  Uiso   1.00
C1198  C     0.79552   0.21929   0.45091   0.00000  Uiso   1.00
C1199  C     0.82944   0.24305   0.44856   0.00000  Uiso   1.00
C1200  C     0.95358   0.37913   0.32918   0.00000  Uiso   1.00
C1201  C     0.85711   0.23995   0.48694   0.00000  Uiso   1.00
C1202  C     0.89144   0.25904   0.48673   0.00000  Uiso   1.00
C1203  C     0.85391   0.23574   0.99658   0.00000  Uiso   1.00
C1204  C     0.88627   0.26557   0.73786   0.00000  Uiso   1.00
C1205  C     0.84875   0.24915   0.74203   0.00000  Uiso   1.00
C1206  C     0.86873   0.28661   0.65494   0.00000  Uiso   1.00
C1207  C     0.83299   0.26916   0.65865   0.00000  Uiso   1.00
C1208  C     0.93700   0.30054   0.69165   0.00000  Uiso   1.00
C1209  C     0.89872   0.28392   0.69313   0.00000  Uiso   1.00
C1210  C     0.79231   0.22051   0.70095   0.00000  Uiso   1.00
C1211  C     0.82372   0.24886   0.70187   0.00000  Uiso   1.00
C1212  C     0.95435   0.38040   0.57377   0.00000  Uiso   1.00
C1213  C     0.87543   0.27926   0.91409   0.00000  Uiso   1.00
C1214  C     0.83947   0.26174   0.91735   0.00000  Uiso   1.00
C1215  C     0.94205   0.29269   0.95725   0.00000  Uiso   1.00
C1216  C     0.90122   0.27526   0.95686   0.00000  Uiso   1.00
C1217  C     0.79282   0.21707   0.95064   0.00000  Uiso   1.00
C1218  C     0.82860   0.23938   0.95471   0.00000  Uiso   1.00
C1219  C     0.95100   0.37459   0.82951   0.00000  Uiso   1.00
C1220  C     0.88927   0.25484   0.99910   0.00000  Uiso   1.00
C1221  C     0.91663   0.39788   0.83031   0.00000  Uiso   1.00
C1222  C     0.89112   0.39967   0.86999   0.00000  Uiso   1.00
C1223  C     0.89045   0.58986   0.24427   0.00000  Uiso   1.00
C1224  C     0.89218   0.40273   0.36703   0.00000  Uiso   1.00
C1225  C     0.79701   0.55402   0.45403   0.00000  Uiso   1.00
C1226  C     0.92005   0.40569   0.07741   0.00000  Uiso   1.00
C1227  C     0.89313   0.59749   0.49431   0.00000  Uiso   1.00
C1228  C     0.89345   0.40721   0.11924   0.00000  Uiso   1.00
C1229  C     0.87555   0.44655   0.03208   0.00000  Uiso   1.00
C1230  C     0.85641   0.58001   0.49756   0.00000  Uiso   1.00
C1231  C     0.90994   0.42763   0.03638   0.00000  Uiso   1.00
C1232  C     0.85405   0.57058   0.24659   0.00000  Uiso   1.00
C1233  C     0.81108   0.46449   0.07374   0.00000  Uiso   1.00
C1234  C     0.84718   0.44329   0.07130   0.00000  Uiso   1.00
C1235  C     0.85765   0.42336   0.11512   0.00000  Uiso   1.00
C1236  C     0.79261   0.54886   0.20475   0.00000  Uiso   1.00
C1237  C     0.82619   0.57553   0.20854   0.00000  Uiso   1.00
C1238  C     0.87132   0.44138   0.27983   0.00000  Uiso   1.00
C1239  C     0.85702   0.42149   0.36572   0.00000  Uiso   1.00
C1240  C     0.90818   0.42369   0.28438   0.00000  Uiso   1.00
C1241  C     0.83111   0.57988   0.45561   0.00000  Uiso   1.00
C1242  C     0.81015   0.46248   0.32339   0.00000  Uiso   1.00
C1243  C     0.84639   0.44072   0.32204   0.00000  Uiso   1.00
C1244  C     0.92024   0.40449   0.32881   0.00000  Uiso   1.00
C1245  C     0.83629   0.59813   0.16865   0.00000  Uiso   1.00
C1246  C     0.84306   0.59656   0.41092   0.00000  Uiso   1.00
C1247  C     0.85021   0.58449   0.99965   0.00000  Uiso   1.00
C1248  C     0.92030   0.40544   0.57554   0.00000  Uiso   1.00
C1249  C     0.84191   0.59800   0.65611   0.00000  Uiso   1.00
C1250  C     0.85641   0.42000   0.86850   0.00000  Uiso   1.00
C1251  C     0.87570   0.44785   0.53269   0.00000  Uiso   1.00
C1252  C     0.91165   0.42982   0.53646   0.00000  Uiso   1.00
C1253  C     0.85887   0.57215   0.73976   0.00000  Uiso   1.00
C1254  C     0.81088   0.46400   0.57334   0.00000  Uiso   1.00
C1255  C     0.84861   0.44276   0.57325   0.00000  Uiso   1.00
C1256  C     0.79465   0.55495   0.95140   0.00000  Uiso   1.00
C1257  C     0.85948   0.42003   0.61513   0.00000  Uiso   1.00
C1258  C     0.79657   0.55173   0.69852   0.00000  Uiso   1.00
C1259  C     0.83208   0.57587   0.69831   0.00000  Uiso   1.00
C1260  C     0.87400   0.44006   0.78362   0.00000  Uiso   1.00
C1261  C     0.90867   0.42011   0.78867   0.00000  Uiso   1.00
C1262  C     0.82703   0.58085   0.95623   0.00000  Uiso   1.00
C1263  C     0.81030   0.46329   0.82136   0.00000  Uiso   1.00
C1264  C     0.84632   0.43988   0.82366   0.00000  Uiso   1.00
C1265  C     0.89486   0.40234   0.61717   0.00000  Uiso   1.00
C1266  C     0.89517   0.58877   0.73829   0.00000  Uiso   1.00
C1267  C     0.93602   0.63288   0.20140   0.00000  Uiso   1.00
C1268  C     0.90553   0.61654   0.45152   0.00000  Uiso   1.00
C1269  C     0.87929   0.78569   0.03494   0.00000  Uiso   1.00
C1270  C     0.91323   0.76434   0.03368   0.00000  Uiso   1.00
C1271  C     0.87093   0.61747   0.16632   0.00000  Uiso   1.00
C1272  C     0.85320   0.78513   0.07609   0.00000  Uiso   1.00
C1273  C     0.95530   0.71734   0.07404   0.00000  Uiso   1.00
C1274  C     0.92280   0.74297   0.07715   0.00000  Uiso   1.00
C1275  C     0.86363   0.76314   0.11878   0.00000  Uiso   1.00
C1276  C     0.90105   0.74676   0.12112   0.00000  Uiso   1.00
C1277  C     0.94307   0.63587   0.45117   0.00000  Uiso   1.00
C1278  C     0.88412   0.78807   0.29332   0.00000  Uiso   1.00
C1279  C     0.92117   0.77288   0.29569   0.00000  Uiso   1.00
C1280  C     0.87825   0.61785   0.41130   0.00000  Uiso   1.00
C1281  C     0.85435   0.78250   0.32957   0.00000  Uiso   1.00
C1282  C     0.96011   0.72244   0.32984   0.00000  Uiso   1.00
C1283  C     0.92759   0.74761   0.33563   0.00000  Uiso   1.00
C1284  C     0.86295   0.76140   0.36977   0.00000  Uiso   1.00
C1285  C     0.89880   0.74388   0.37340   0.00000  Uiso   1.00
C1286  C     0.89929   0.61294   0.20283   0.00000  Uiso   1.00
C1287  C     0.90483   0.61120   0.69731   0.00000  Uiso   1.00
C1288  C     0.87088   0.62242   0.91176   0.00000  Uiso   1.00
C1289  C     0.80843   0.79282   0.58017   0.00000  Uiso   1.00
C1290  C     0.87773   0.61680   0.65758   0.00000  Uiso   1.00
C1291  C     0.94298   0.62933   0.69860   0.00000  Uiso   1.00
C1292  C     0.87413   0.77778   0.53834   0.00000  Uiso   1.00
C1293  C     0.91012   0.75968   0.53935   0.00000  Uiso   1.00
C1294  C     0.84697   0.77534   0.58006   0.00000  Uiso   1.00
C1295  C     0.95812   0.71803   0.57989   0.00000  Uiso   1.00
C1296  C     0.92312   0.74076   0.58185   0.00000  Uiso   1.00
C1297  C     0.86206   0.75730   0.62416   0.00000  Uiso   1.00
C1298  C     0.90066   0.74413   0.62657   0.00000  Uiso   1.00
C1299  C     0.93720   0.63445   0.94710   0.00000  Uiso   1.00
C1300  C     0.88024   0.78481   0.78796   0.00000  Uiso   1.00
C1301  C     0.91657   0.76547   0.79093   0.00000  Uiso   1.00
C1302  C     0.89817   0.61771   0.94906   0.00000  Uiso   1.00
C1303  C     0.84951   0.78065   0.82605   0.00000  Uiso   1.00
C1304  C     0.95594   0.71632   0.82834   0.00000  Uiso   1.00
C1305  C     0.92203   0.74117   0.83003   0.00000  Uiso   1.00
C1306  C     0.85901   0.75920   0.86777   0.00000  Uiso   1.00
C1307  C     0.89433   0.73831   0.86928   0.00000  Uiso   1.00
C1308  C     0.83478   0.60315   0.91623   0.00000  Uiso   1.00
C1309  C     0.81285   0.80000   0.82443   0.00000  Uiso   1.00
C1310  C     0.88738   0.60022   0.99616   0.00000  Uiso   1.00
C1311  C     0.81597   0.80008   0.33180   0.00000  Uiso   1.00
C1312  C     0.88689   0.93353   0.24871   0.00000  Uiso   1.00
C1313  C     0.85385   0.91207   0.24797   0.00000  Uiso   1.00
C1314  C     0.87528   0.95354   0.16332   0.00000  Uiso   1.00
C1315  C     0.84195   0.93124   0.16438   0.00000  Uiso   1.00
C1316  C     0.94107   0.96852   0.20578   0.00000  Uiso   1.00
C1317  C     0.90046   0.95229   0.20654   0.00000  Uiso   1.00
C1318  C     0.79759   0.88238   0.20337   0.00000  Uiso   1.00
C1319  C     0.82992   0.91006   0.20625   0.00000  Uiso   1.00
C1320  C     0.87084   0.94809   0.41805   0.00000  Uiso   1.00
C1321  C     0.83591   0.92760   0.42164   0.00000  Uiso   1.00
C1322  C     0.93754   0.96355   0.45329   0.00000  Uiso   1.00
C1323  C     0.90034   0.94181   0.45467   0.00000  Uiso   1.00
C1324  C     0.79461   0.87896   0.46260   0.00000  Uiso   1.00
C1325  C     0.82733   0.90550   0.46270   0.00000  Uiso   1.00
C1326  C     0.81473   0.80272   0.07482   0.00000  Uiso   1.00
C1327  C     0.89341   0.91758   0.49518   0.00000  Uiso   1.00
C1328  C     0.89419   0.92124   0.73995   0.00000  Uiso   1.00
C1329  C     0.85629   0.90591   0.74469   0.00000  Uiso   1.00
C1330  C     0.87614   0.94493   0.66233   0.00000  Uiso   1.00
C1331  C     0.84205   0.92181   0.66089   0.00000  Uiso   1.00
C1332  C     0.94093   0.96562   0.70276   0.00000  Uiso   1.00
C1333  C     0.90154   0.94577   0.70170   0.00000  Uiso   1.00
C1334  C     0.79559   0.87771   0.70560   0.00000  Uiso   1.00
C1335  C     0.83139   0.90345   0.70431   0.00000  Uiso   1.00
C1336  C     0.87265   0.94375   0.90851   0.00000  Uiso   1.00
C1337  C     0.83641   0.92866   0.90883   0.00000  Uiso   1.00
C1338  C     0.93759   0.96314   0.95097   0.00000  Uiso   1.00
C1339  C     0.89927   0.94225   0.95011   0.00000  Uiso   1.00
C1340  C     0.79002   0.88493   0.95246   0.00000  Uiso   1.00
C1341  C     0.82329   0.91065   0.95437   0.00000  Uiso   1.00
C1342  C     0.88585   0.92423   0.99445   0.00000  Uiso   1.00
C1343  C     0.85617   0.90401   0.50238   0.00000  Uiso   1.00
C1344  C     0.84667   0.91137   0.99976   0.00000  Uiso   1.00
O1345  O     0.20738   0.19577   0.48557   0.00000  Uiso   1.00
O1346  O     0.21660   0.12998   0.28172   0.00000  Uiso   1.00
O1347  O     0.04071   0.03081   0.28493   0.00000  Uiso   1.00
O1348  O     0.20355   0.18855   0.15130   0.00000  Uiso   1.00
O1349  O     0.22038   0.12506   0.11216   0.00000  Uiso   1.00
O1350  O     0.04620   0.02353   0.11465   0.00000  Uiso   1.00
O1351  O     0.04324   0.02695   0.37192   0.00000  Uiso   1.00
O1352  O     0.21378   0.12817   0.02683   0.00000  Uiso   1.00
O1353  O     0.04509   0.02081   0.02779   0.00000  Uiso   1.00
O1354  O     0.22010   0.12790   0.37133   0.00000  Uiso   1.00
O1355  O     0.20579   0.19211   0.23833   0.00000  Uiso   1.00
O1356  O     0.20382   0.18717   0.39819   0.00000  Uiso   1.00
O1357  O     0.04108   0.02740   0.78598   0.00000  Uiso   1.00
O1358  O     0.04284   0.02902   0.87372   0.00000  Uiso   1.00
O1359  O     0.21751   0.12918   0.87096   0.00000  Uiso   1.00
O1360  O     0.21470   0.13231   0.61815   0.00000  Uiso   1.00
O1361  O     0.04388   0.02913   0.61654   0.00000  Uiso   1.00
O1362  O     0.21436   0.13029   0.78416   0.00000  Uiso   1.00
O1363  O     0.21394   0.13076   0.53155   0.00000  Uiso   1.00
O1364  O     0.04249   0.02521   0.52916   0.00000  Uiso   1.00
O1365  O     0.20689   0.19156   0.99170   0.00000  Uiso   1.00
O1366  O     0.20468   0.19238   0.90377   0.00000  Uiso   1.00
O1367  O     0.20530   0.19345   0.73730   0.00000  Uiso   1.00
O1368  O     0.20742   0.19459   0.65167   0.00000  Uiso   1.00
O1369  O     0.04221   0.36293   0.27601   0.00000  Uiso   1.00
O1370  O     0.04443   0.35643   0.11505   0.00000  Uiso   1.00
O1371  O     0.04444   0.35777   0.36234   0.00000  Uiso   1.00
O1372  O     0.03086   0.29307   0.41085   0.00000  Uiso   1.00
O1373  O     0.03487   0.29807   0.23800   0.00000  Uiso   1.00
O1374  O     0.02859   0.29012   0.15329   0.00000  Uiso   1.00
O1375  O     0.03783   0.36979   0.03134   0.00000  Uiso   1.00
O1376  O     0.03806   0.29567   0.49677   0.00000  Uiso   1.00
O1377  O     0.03955   0.35870   0.77873   0.00000  Uiso   1.00
O1378  O     0.04235   0.35672   0.61235   0.00000  Uiso   1.00
O1379  O     0.04564   0.34646   0.86403   0.00000  Uiso   1.00
O1380  O     0.03115   0.28656   0.90887   0.00000  Uiso   1.00
O1381  O     0.03068   0.29378   0.65743   0.00000  Uiso   1.00
O1382  O     0.04398   0.36050   0.52504   0.00000  Uiso   1.00
O1383  O     0.02795   0.29033   0.74576   0.00000  Uiso   1.00
O1384  O     0.03579   0.30073   0.99599   0.00000  Uiso   1.00
O1385  O     0.21482   0.46532   0.28870   0.00000  Uiso   1.00
O1386  O     0.20574   0.52494   0.40552   0.00000  Uiso   1.00
O1387  O     0.21613   0.45733   0.03249   0.00000  Uiso   1.00
O1388  O     0.21158   0.46696   0.37600   0.00000  Uiso   1.00
O1389  O     0.20673   0.52505   0.49221   0.00000  Uiso   1.00
O1390  O     0.21529   0.46238   0.12309   0.00000  Uiso   1.00
O1391  O     0.20463   0.52414   0.24155   0.00000  Uiso   1.00
O1392  O     0.20821   0.52399   0.15528   0.00000  Uiso   1.00
O1393  O     0.20248   0.51888   0.99236   0.00000  Uiso   1.00
O1394  O     0.21320   0.46609   0.53441   0.00000  Uiso   1.00
O1395  O     0.20421   0.52204   0.65679   0.00000  Uiso   1.00
O1396  O     0.21740   0.45715   0.78703   0.00000  Uiso   1.00
O1397  O     0.20274   0.51568   0.74461   0.00000  Uiso   1.00
O1398  O     0.20701   0.52550   0.90573   0.00000  Uiso   1.00
O1399  O     0.21411   0.46441   0.62428   0.00000  Uiso   1.00
O1400  O     0.21374   0.46016   0.87441   0.00000  Uiso   1.00
O1401  O     0.04443   0.70031   0.27966   0.00000  Uiso   1.00
O1402  O     0.04244   0.69008   0.03672   0.00000  Uiso   1.00
O1403  O     0.04837   0.68934   0.36456   0.00000  Uiso   1.00
O1404  O     0.02725   0.62236   0.16309   0.00000  Uiso   1.00
O1405  O     0.03862   0.63615   0.24638   0.00000  Uiso   1.00
O1406  O     0.03315   0.62898   0.41243   0.00000  Uiso   1.00
O1407  O     0.04321   0.68612   0.12214   0.00000  Uiso   1.00
O1408  O     0.21483   0.79619   0.12841   0.00000  Uiso   1.00
O1409  O     0.21636   0.79557   0.04118   0.00000  Uiso   1.00
O1410  O     0.03669   0.63520   0.49624   0.00000  Uiso   1.00
O1411  O     0.04548   0.69342   0.78205   0.00000  Uiso   1.00
O1412  O     0.04616   0.68851   0.86925   0.00000  Uiso   1.00
O1413  O     0.03203   0.62591   0.90940   0.00000  Uiso   1.00
O1414  O     0.03353   0.62481   0.65918   0.00000  Uiso   1.00
O1415  O     0.03676   0.63248   0.74499   0.00000  Uiso   1.00
O1416  O     0.05179   0.68814   0.61522   0.00000  Uiso   1.00
O1417  O     0.04585   0.69779   0.53010   0.00000  Uiso   1.00
O1418  O     0.21838   0.79584   0.78774   0.00000  Uiso   1.00
O1419  O     0.03257   0.62758   0.99636   0.00000  Uiso   1.00
O1420  O     0.22032   0.79623   0.87542   0.00000  Uiso   1.00
O1421  O     0.20779   0.85952   0.40987   0.00000  Uiso   1.00
O1422  O     0.03145   0.96160   0.40812   0.00000  Uiso   1.00
O1423  O     0.03416   0.96253   0.16475   0.00000  Uiso   1.00
O1424  O     0.20549   0.85866   0.15655   0.00000  Uiso   1.00
O1425  O     0.03709   0.96936   0.25019   0.00000  Uiso   1.00
O1426  O     0.21149   0.86469   0.24345   0.00000  Uiso   1.00
O1427  O     0.21456   0.80421   0.28575   0.00000  Uiso   1.00
O1428  O     0.20719   0.86807   0.49430   0.00000  Uiso   1.00
O1429  O     0.02760   0.95849   0.49580   0.00000  Uiso   1.00
O1430  O     0.03117   0.95809   0.00036   0.00000  Uiso   1.00
O1431  O     0.21694   0.80023   0.37522   0.00000  Uiso   1.00
O1432  O     0.21557   0.80083   0.61973   0.00000  Uiso   1.00
O1433  O     0.03038   0.96240   0.91287   0.00000  Uiso   1.00
O1434  O     0.03610   0.96288   0.66226   0.00000  Uiso   1.00
O1435  O     0.21079   0.86545   0.65673   0.00000  Uiso   1.00
O1436  O     0.02720   0.95924   0.74912   0.00000  Uiso   1.00
O1437  O     0.20477   0.86011   0.74292   0.00000  Uiso   1.00
O1438  O     0.20806   0.85800   0.90779   0.00000  Uiso   1.00
O1439  O     0.20206   0.85027   0.99346   0.00000  Uiso   1.00
O1440  O     0.21593   0.80028   0.53428   0.00000  Uiso   1.00
O1441  O     0.47053   0.04117   0.28171   0.00000  Uiso   1.00
O1442  O     0.47149   0.03897   0.36763   0.00000  Uiso   1.00
O1443  O     0.29424   0.13780   0.36380   0.00000  Uiso   1.00
O1444  O     0.29333   0.13775   0.27679   0.00000  Uiso   1.00
O1445  O     0.29623   0.13992   0.11647   0.00000  Uiso   1.00
O1446  O     0.47236   0.03754   0.12026   0.00000  Uiso   1.00
O1447  O     0.46774   0.03515   0.03246   0.00000  Uiso   1.00
O1448  O     0.29357   0.13342   0.02898   0.00000  Uiso   1.00
O1449  O     0.46594   0.03617   0.86314   0.00000  Uiso   1.00
O1450  O     0.46157   0.03384   0.61555   0.00000  Uiso   1.00
O1451  O     0.28973   0.19510   0.99314   0.00000  Uiso   1.00
O1452  O     0.29470   0.14552   0.86322   0.00000  Uiso   1.00
O1453  O     0.46845   0.03810   0.77492   0.00000  Uiso   1.00
O1454  O     0.29602   0.14766   0.61383   0.00000  Uiso   1.00
O1455  O     0.29105   0.13789   0.77671   0.00000  Uiso   1.00
O1456  O     0.46567   0.04002   0.52787   0.00000  Uiso   1.00
O1457  O     0.29755   0.14927   0.52949   0.00000  Uiso   1.00
O1458  O     0.28360   0.20147   0.40367   0.00000  Uiso   1.00
O1459  O     0.28193   0.20247   0.24071   0.00000  Uiso   1.00
O1460  O     0.46657   0.37074   0.36240   0.00000  Uiso   1.00
O1461  O     0.45468   0.30771   0.40896   0.00000  Uiso   1.00
O1462  O     0.45846   0.30553   0.24162   0.00000  Uiso   1.00
O1463  O     0.45868   0.30546   0.15300   0.00000  Uiso   1.00
O1464  O     0.46483   0.37035   0.03261   0.00000  Uiso   1.00
O1465  O     0.47146   0.37237   0.11971   0.00000  Uiso   1.00
O1466  O     0.46429   0.37351   0.27689   0.00000  Uiso   1.00
O1467  O     0.28168   0.20354   0.15261   0.00000  Uiso   1.00
O1468  O     0.45393   0.31042   0.49657   0.00000  Uiso   1.00
O1469  O     0.27762   0.20661   0.49163   0.00000  Uiso   1.00
O1470  O     0.45399   0.30749   0.99240   0.00000  Uiso   1.00
O1471  O     0.28112   0.20679   0.90779   0.00000  Uiso   1.00
O1472  O     0.45787   0.30578   0.90592   0.00000  Uiso   1.00
O1473  O     0.46366   0.36486   0.86998   0.00000  Uiso   1.00
O1474  O     0.45362   0.31403   0.74102   0.00000  Uiso   1.00
O1475  O     0.45528   0.30975   0.65539   0.00000  Uiso   1.00
O1476  O     0.46632   0.37382   0.53981   0.00000  Uiso   1.00
O1477  O     0.46717   0.36986   0.62807   0.00000  Uiso   1.00
O1478  O     0.46382   0.37081   0.78268   0.00000  Uiso   1.00
O1479  O     0.28442   0.20199   0.74702   0.00000  Uiso   1.00
O1480  O     0.28237   0.20665   0.66016   0.00000  Uiso   1.00
O1481  O     0.29145   0.46239   0.02858   0.00000  Uiso   1.00
O1482  O     0.29514   0.47047   0.11545   0.00000  Uiso   1.00
O1483  O     0.28293   0.53898   0.16254   0.00000  Uiso   1.00
O1484  O     0.29263   0.47677   0.36885   0.00000  Uiso   1.00
O1485  O     0.28005   0.53957   0.49955   0.00000  Uiso   1.00
O1486  O     0.29183   0.47049   0.28079   0.00000  Uiso   1.00
O1487  O     0.27775   0.54155   0.24974   0.00000  Uiso   1.00
O1488  O     0.27765   0.54447   0.41038   0.00000  Uiso   1.00
O1489  O     0.29159   0.47157   0.53178   0.00000  Uiso   1.00
O1490  O     0.29288   0.47238   0.62005   0.00000  Uiso   1.00
O1491  O     0.27717   0.54198   0.66745   0.00000  Uiso   1.00
O1492  O     0.29171   0.47148   0.86854   0.00000  Uiso   1.00
O1493  O     0.28048   0.53268   0.75414   0.00000  Uiso   1.00
O1494  O     0.27786   0.53796   0.90711   0.00000  Uiso   1.00
O1495  O     0.29156   0.46513   0.78400   0.00000  Uiso   1.00
O1496  O     0.28280   0.52947   0.99267   0.00000  Uiso   1.00
O1497  O     0.46899   0.70533   0.12409   0.00000  Uiso   1.00
O1498  O     0.45441   0.64045   0.15957   0.00000  Uiso   1.00
O1499  O     0.46794   0.70499   0.37522   0.00000  Uiso   1.00
O1500  O     0.46867   0.70697   0.03725   0.00000  Uiso   1.00
O1501  O     0.45123   0.64174   0.40579   0.00000  Uiso   1.00
O1502  O     0.47006   0.70885   0.28951   0.00000  Uiso   1.00
O1503  O     0.45175   0.64624   0.24772   0.00000  Uiso   1.00
O1504  O     0.45073   0.64421   0.49387   0.00000  Uiso   1.00
O1505  O     0.46678   0.70525   0.87489   0.00000  Uiso   1.00
O1506  O     0.47045   0.70835   0.53939   0.00000  Uiso   1.00
O1507  O     0.45029   0.64318   0.90931   0.00000  Uiso   1.00
O1508  O     0.46628   0.70742   0.78796   0.00000  Uiso   1.00
O1509  O     0.46253   0.69620   0.62447   0.00000  Uiso   1.00
O1510  O     0.45493   0.63100   0.66170   0.00000  Uiso   1.00
O1511  O     0.44860   0.64489   0.74657   0.00000  Uiso   1.00
O1512  O     0.45570   0.63446   0.99752   0.00000  Uiso   1.00
O1513  O     0.45615   0.98135   0.40536   0.00000  Uiso   1.00
O1514  O     0.29455   0.80795   0.37028   0.00000  Uiso   1.00
O1515  O     0.28139   0.86798   0.00142   0.00000  Uiso   1.00
O1516  O     0.29400   0.80355   0.12147   0.00000  Uiso   1.00
O1517  O     0.45636   0.98375   0.49013   0.00000  Uiso   1.00
O1518  O     0.28285   0.87548   0.24508   0.00000  Uiso   1.00
O1519  O     0.45603   0.97895   0.24138   0.00000  Uiso   1.00
O1520  O     0.28815   0.87107   0.41269   0.00000  Uiso   1.00
O1521  O     0.28800   0.86715   0.15863   0.00000  Uiso   1.00
O1522  O     0.45932   0.97054   0.15445   0.00000  Uiso   1.00
O1523  O     0.29741   0.81186   0.28130   0.00000  Uiso   1.00
O1524  O     0.29269   0.80105   0.03309   0.00000  Uiso   1.00
O1525  O     0.28491   0.87761   0.49899   0.00000  Uiso   1.00
O1526  O     0.29579   0.80833   0.77992   0.00000  Uiso   1.00
O1527  O     0.29434   0.80676   0.62251   0.00000  Uiso   1.00
O1528  O     0.45334   0.98034   0.90551   0.00000  Uiso   1.00
O1529  O     0.45823   0.97585   0.99274   0.00000  Uiso   1.00
O1530  O     0.29529   0.81195   0.53493   0.00000  Uiso   1.00
O1531  O     0.28422   0.86995   0.75079   0.00000  Uiso   1.00
O1532  O     0.45624   0.97753   0.73936   0.00000  Uiso   1.00
O1533  O     0.28382   0.87154   0.91255   0.00000  Uiso   1.00
O1534  O     0.28700   0.86928   0.66253   0.00000  Uiso   1.00
O1535  O     0.45876   0.96905   0.65293   0.00000  Uiso   1.00
O1536  O     0.29573   0.80804   0.86577   0.00000  Uiso   1.00
O1537  O     0.54436   0.03046   0.27836   0.00000  Uiso   1.00
O1538  O     0.71854   0.13220   0.36910   0.00000  Uiso   1.00
O1539  O     0.70398   0.18827   0.40496   0.00000  Uiso   1.00
O1540  O     0.70339   0.19136   0.49164   0.00000  Uiso   1.00
O1541  O     0.71425   0.13497   0.28367   0.00000  Uiso   1.00
O1542  O     0.70607   0.19391   0.24316   0.00000  Uiso   1.00
O1543  O     0.71965   0.12843   0.11696   0.00000  Uiso   1.00
O1544  O     0.54827   0.02380   0.36467   0.00000  Uiso   1.00
O1545  O     0.54658   0.02266   0.11967   0.00000  Uiso   1.00
O1546  O     0.71515   0.12855   0.02921   0.00000  Uiso   1.00
O1547  O     0.54321   0.02743   0.03191   0.00000  Uiso   1.00
O1548  O     0.70251   0.18596   0.15529   0.00000  Uiso   1.00
O1549  O     0.71262   0.13394   0.86231   0.00000  Uiso   1.00
O1550  O     0.70433   0.19524   0.65519   0.00000  Uiso   1.00
O1551  O     0.70470   0.19370   0.73988   0.00000  Uiso   1.00
O1552  O     0.71694   0.12996   0.77672   0.00000  Uiso   1.00
O1553  O     0.54363   0.02948   0.86496   0.00000  Uiso   1.00
O1554  O     0.71191   0.13870   0.62298   0.00000  Uiso   1.00
O1555  O     0.54352   0.03012   0.61164   0.00000  Uiso   1.00
O1556  O     0.54474   0.02239   0.77790   0.00000  Uiso   1.00
O1557  O     0.71706   0.12851   0.53690   0.00000  Uiso   1.00
O1558  O     0.54541   0.03526   0.52641   0.00000  Uiso   1.00
O1559  O     0.70251   0.18681   0.99180   0.00000  Uiso   1.00
O1560  O     0.70513   0.19169   0.90477   0.00000  Uiso   1.00
O1561  O     0.54075   0.36466   0.28442   0.00000  Uiso   1.00
O1562  O     0.54347   0.35872   0.37148   0.00000  Uiso   1.00
O1563  O     0.53523   0.30053   0.40946   0.00000  Uiso   1.00
O1564  O     0.53621   0.29952   0.15900   0.00000  Uiso   1.00
O1565  O     0.54384   0.36055   0.02671   0.00000  Uiso   1.00
O1566  O     0.54406   0.36142   0.11775   0.00000  Uiso   1.00
O1567  O     0.53558   0.30113   0.24646   0.00000  Uiso   1.00
O1568  O     0.53606   0.30368   0.49666   0.00000  Uiso   1.00
O1569  O     0.54230   0.35965   0.61644   0.00000  Uiso   1.00
O1570  O     0.53953   0.36530   0.78355   0.00000  Uiso   1.00
O1571  O     0.54255   0.36172   0.86886   0.00000  Uiso   1.00
O1572  O     0.53167   0.29674   0.90885   0.00000  Uiso   1.00
O1573  O     0.53216   0.29496   0.66221   0.00000  Uiso   1.00
O1574  O     0.54314   0.36244   0.52837   0.00000  Uiso   1.00
O1575  O     0.52891   0.29406   0.74945   0.00000  Uiso   1.00
O1576  O     0.53233   0.29665   0.99702   0.00000  Uiso   1.00
O1577  O     0.71428   0.46791   0.37344   0.00000  Uiso   1.00
O1578  O     0.71591   0.46146   0.29051   0.00000  Uiso   1.00
O1579  O     0.70721   0.52981   0.40442   0.00000  Uiso   1.00
O1580  O     0.71130   0.47250   0.03256   0.00000  Uiso   1.00
O1581  O     0.70627   0.52634   0.49159   0.00000  Uiso   1.00
O1582  O     0.70389   0.51950   0.24313   0.00000  Uiso   1.00
O1583  O     0.70510   0.52497   0.15533   0.00000  Uiso   1.00
O1584  O     0.71632   0.46472   0.11762   0.00000  Uiso   1.00
O1585  O     0.70928   0.53158   0.99389   0.00000  Uiso   1.00
O1586  O     0.70707   0.52874   0.65569   0.00000  Uiso   1.00
O1587  O     0.71460   0.46710   0.78019   0.00000  Uiso   1.00
O1588  O     0.71031   0.52847   0.90794   0.00000  Uiso   1.00
O1589  O     0.71715   0.46389   0.53148   0.00000  Uiso   1.00
O1590  O     0.71892   0.46144   0.61979   0.00000  Uiso   1.00
O1591  O     0.71603   0.46986   0.86689   0.00000  Uiso   1.00
O1592  O     0.70624   0.52691   0.74151   0.00000  Uiso   1.00
O1593  O     0.54331   0.69187   0.28336   0.00000  Uiso   1.00
O1594  O     0.54526   0.68696   0.36992   0.00000  Uiso   1.00
O1595  O     0.71633   0.79780   0.12507   0.00000  Uiso   1.00
O1596  O     0.53064   0.62849   0.41319   0.00000  Uiso   1.00
O1597  O     0.52974   0.62809   0.16217   0.00000  Uiso   1.00
O1598  O     0.53167   0.63128   0.24835   0.00000  Uiso   1.00
O1599  O     0.72005   0.78923   0.03615   0.00000  Uiso   1.00
O1600  O     0.54755   0.68875   0.12262   0.00000  Uiso   1.00
O1601  O     0.54539   0.69034   0.03641   0.00000  Uiso   1.00
O1602  O     0.72369   0.78752   0.28602   0.00000  Uiso   1.00
O1603  O     0.71912   0.79189   0.37387   0.00000  Uiso   1.00
O1604  O     0.54531   0.69001   0.87024   0.00000  Uiso   1.00
O1605  O     0.53937   0.69706   0.78261   0.00000  Uiso   1.00
O1606  O     0.72209   0.79055   0.87668   0.00000  Uiso   1.00
O1607  O     0.53055   0.62628   0.90976   0.00000  Uiso   1.00
O1608  O     0.53117   0.63012   0.50173   0.00000  Uiso   1.00
O1609  O     0.52899   0.62100   0.66466   0.00000  Uiso   1.00
O1610  O     0.53055   0.63065   0.75153   0.00000  Uiso   1.00
O1611  O     0.71405   0.79296   0.78839   0.00000  Uiso   1.00
O1612  O     0.54771   0.67866   0.61881   0.00000  Uiso   1.00
O1613  O     0.54195   0.69358   0.53340   0.00000  Uiso   1.00
O1614  O     0.72215   0.78651   0.62506   0.00000  Uiso   1.00
O1615  O     0.71559   0.79150   0.53748   0.00000  Uiso   1.00
O1616  O     0.53499   0.63554   0.99538   0.00000  Uiso   1.00
O1617  O     0.70761   0.85948   0.40351   0.00000  Uiso   1.00
O1618  O     0.53030   0.96085   0.40464   0.00000  Uiso   1.00
O1619  O     0.70193   0.85531   0.49159   0.00000  Uiso   1.00
O1620  O     0.53375   0.96171   0.15954   0.00000  Uiso   1.00
O1621  O     0.71274   0.86646   0.16254   0.00000  Uiso   1.00
O1622  O     0.53707   0.96589   0.24678   0.00000  Uiso   1.00
O1623  O     0.70516   0.85060   0.24506   0.00000  Uiso   1.00
O1624  O     0.53378   0.96463   0.49151   0.00000  Uiso   1.00
O1625  O     0.53424   0.96328   0.99286   0.00000  Uiso   1.00
O1626  O     0.53087   0.96143   0.90561   0.00000  Uiso   1.00
O1627  O     0.53509   0.96254   0.65224   0.00000  Uiso   1.00
O1628  O     0.70650   0.85879   0.65933   0.00000  Uiso   1.00
O1629  O     0.53381   0.96284   0.73856   0.00000  Uiso   1.00
O1630  O     0.70495   0.85813   0.74223   0.00000  Uiso   1.00
O1631  O     0.70513   0.85596   0.90637   0.00000  Uiso   1.00
O1632  O     0.69996   0.85102   0.99527   0.00000  Uiso   1.00
O1633  O     0.96677   0.03646   0.12342   0.00000  Uiso   1.00
O1634  O     0.79235   0.13824   0.27990   0.00000  Uiso   1.00
O1635  O     0.79448   0.14139   0.36600   0.00000  Uiso   1.00
O1636  O     0.97403   0.04529   0.28636   0.00000  Uiso   1.00
O1637  O     0.96720   0.03464   0.37162   0.00000  Uiso   1.00
O1638  O     0.79327   0.13997   0.11771   0.00000  Uiso   1.00
O1639  O     0.96451   0.03287   0.03658   0.00000  Uiso   1.00
O1640  O     0.79073   0.13778   0.03031   0.00000  Uiso   1.00
O1641  O     0.96123   0.03218   0.87406   0.00000  Uiso   1.00
O1642  O     0.96363   0.03323   0.62514   0.00000  Uiso   1.00
O1643  O     0.79216   0.13718   0.78306   0.00000  Uiso   1.00
O1644  O     0.79008   0.13769   0.87146   0.00000  Uiso   1.00
O1645  O     0.79384   0.14535   0.62196   0.00000  Uiso   1.00
O1646  O     0.95830   0.02960   0.78666   0.00000  Uiso   1.00
O1647  O     0.96218   0.03478   0.53795   0.00000  Uiso   1.00
O1648  O     0.78776   0.13794   0.53458   0.00000  Uiso   1.00
O1649  O     0.78500   0.20498   0.49647   0.00000  Uiso   1.00
O1650  O     0.78188   0.20666   0.15522   0.00000  Uiso   1.00
O1651  O     0.95559   0.30811   0.49079   0.00000  Uiso   1.00
O1652  O     0.78117   0.20589   0.23963   0.00000  Uiso   1.00
O1653  O     0.78160   0.20602   0.40762   0.00000  Uiso   1.00
O1654  O     0.95548   0.30710   0.40352   0.00000  Uiso   1.00
O1655  O     0.95370   0.31147   0.23685   0.00000  Uiso   1.00
O1656  O     0.96745   0.36673   0.28557   0.00000  Uiso   1.00
O1657  O     0.95480   0.30616   0.15018   0.00000  Uiso   1.00
O1658  O     0.96791   0.37222   0.02911   0.00000  Uiso   1.00
O1659  O     0.96320   0.36516   0.11737   0.00000  Uiso   1.00
O1660  O     0.96587   0.36438   0.37216   0.00000  Uiso   1.00
O1661  O     0.96013   0.29503   0.91197   0.00000  Uiso   1.00
O1662  O     0.96502   0.36649   0.78236   0.00000  Uiso   1.00
O1663  O     0.95210   0.31201   0.73399   0.00000  Uiso   1.00
O1664  O     0.95517   0.30969   0.99851   0.00000  Uiso   1.00
O1665  O     0.95602   0.30205   0.64928   0.00000  Uiso   1.00
O1666  O     0.96727   0.36708   0.52901   0.00000  Uiso   1.00
O1667  O     0.96575   0.36740   0.61902   0.00000  Uiso   1.00
O1668  O     0.96118   0.35843   0.87182   0.00000  Uiso   1.00
O1669  O     0.78564   0.20240   0.74344   0.00000  Uiso   1.00
O1670  O     0.77648   0.21246   0.65849   0.00000  Uiso   1.00
O1671  O     0.78096   0.20550   0.90585   0.00000  Uiso   1.00
O1672  O     0.77941   0.20097   0.99253   0.00000  Uiso   1.00
O1673  O     0.79605   0.47306   0.11909   0.00000  Uiso   1.00
O1674  O     0.77928   0.53916   0.16062   0.00000  Uiso   1.00
O1675  O     0.79579   0.47786   0.36503   0.00000  Uiso   1.00
O1676  O     0.78247   0.53254   0.24781   0.00000  Uiso   1.00
O1677  O     0.79351   0.47488   0.03031   0.00000  Uiso   1.00
O1678  O     0.78712   0.53889   0.49717   0.00000  Uiso   1.00
O1679  O     0.78218   0.54384   0.41106   0.00000  Uiso   1.00
O1680  O     0.78763   0.46258   0.28261   0.00000  Uiso   1.00
O1681  O     0.78016   0.54218   0.99487   0.00000  Uiso   1.00
O1682  O     0.79646   0.47425   0.61822   0.00000  Uiso   1.00
O1683  O     0.78583   0.53693   0.65471   0.00000  Uiso   1.00
O1684  O     0.79411   0.47164   0.86581   0.00000  Uiso   1.00
O1685  O     0.79365   0.47096   0.52963   0.00000  Uiso   1.00
O1686  O     0.79463   0.47288   0.77762   0.00000  Uiso   1.00
O1687  O     0.78759   0.53905   0.90741   0.00000  Uiso   1.00
O1688  O     0.78100   0.54270   0.74339   0.00000  Uiso   1.00
O1689  O     0.97032   0.70161   0.36652   0.00000  Uiso   1.00
O1690  O     0.96472   0.69933   0.11557   0.00000  Uiso   1.00
O1691  O     0.95858   0.64162   0.40583   0.00000  Uiso   1.00
O1692  O     0.97318   0.71429   0.28472   0.00000  Uiso   1.00
O1693  O     0.97021   0.70730   0.02989   0.00000  Uiso   1.00
O1694  O     0.95587   0.63480   0.15833   0.00000  Uiso   1.00
O1695  O     0.95930   0.64804   0.49364   0.00000  Uiso   1.00
O1696  O     0.95214   0.64792   0.24267   0.00000  Uiso   1.00
O1697  O     0.96568   0.69888   0.87035   0.00000  Uiso   1.00
O1698  O     0.97085   0.70171   0.62139   0.00000  Uiso   1.00
O1699  O     0.95742   0.63575   0.90476   0.00000  Uiso   1.00
O1700  O     0.95333   0.64463   0.99165   0.00000  Uiso   1.00
O1701  O     0.97144   0.70649   0.78421   0.00000  Uiso   1.00
O1702  O     0.97159   0.70949   0.53375   0.00000  Uiso   1.00
O1703  O     0.95948   0.63583   0.65438   0.00000  Uiso   1.00
O1704  O     0.95639   0.64173   0.74365   0.00000  Uiso   1.00
O1705  O     0.79689   0.80730   0.28770   0.00000  Uiso   1.00
O1706  O     0.95628   0.97047   0.41047   0.00000  Uiso   1.00
O1707  O     0.79696   0.81042   0.11625   0.00000  Uiso   1.00
O1708  O     0.79883   0.81095   0.02996   0.00000  Uiso   1.00
O1709  O     0.78199   0.87038   0.24788   0.00000  Uiso   1.00
O1710  O     0.95497   0.97935   0.24864   0.00000  Uiso   1.00
O1711  O     0.78231   0.86852   0.41589   0.00000  Uiso   1.00
O1712  O     0.78847   0.86791   0.15860   0.00000  Uiso   1.00
O1713  O     0.95888   0.97457   0.16368   0.00000  Uiso   1.00
O1714  O     0.80003   0.81006   0.37489   0.00000  Uiso   1.00
O1715  O     0.95518   0.97188   0.49637   0.00000  Uiso   1.00
O1716  O     0.77398   0.87260   0.99388   0.00000  Uiso   1.00
O1717  O     0.79451   0.80589   0.62277   0.00000  Uiso   1.00
O1718  O     0.95354   0.96982   0.90665   0.00000  Uiso   1.00
O1719  O     0.95527   0.96958   0.99510   0.00000  Uiso   1.00
O1720  O     0.79603   0.80886   0.86960   0.00000  Uiso   1.00
O1721  O     0.79365   0.80451   0.78188   0.00000  Uiso   1.00
O1722  O     0.78282   0.86475   0.74814   0.00000  Uiso   1.00
O1723  O     0.95476   0.97620   0.74696   0.00000  Uiso   1.00
O1724  O     0.78404   0.86762   0.90937   0.00000  Uiso   1.00
O1725  O     0.78454   0.86600   0.66094   0.00000  Uiso   1.00
O1726  O     0.95932   0.97359   0.66200   0.00000  Uiso   1.00
O1727  O     0.78338   0.86235   0.50600   0.00000  Uiso   1.00
O1728  O     0.79014   0.80055   0.53748   0.00000  Uiso   1.00
O1729  O     0.00253   0.02138   0.45460   0.00000  Uiso   1.00
O1730  O     0.24375   0.18517   0.07112   0.00000  Uiso   1.00
O1731  O     0.00395   0.02098   0.20363   0.00000  Uiso   1.00
O1732  O     0.00072   0.01769   0.95633   0.00000  Uiso   1.00
O1733  O     0.24942   0.14573   0.69813   0.00000  Uiso   1.00
O1734  O     0.24318   0.18911   0.82152   0.00000  Uiso   1.00
O1735  O     0.01126   0.02291   0.70477   0.00000  Uiso   1.00
O1736  O     0.24236   0.18700   0.57521   0.00000  Uiso   1.00
O1737  O     0.00760   0.35394   0.19579   0.00000  Uiso   1.00
O1738  O     0.01172   0.35284   0.44649   0.00000  Uiso   1.00
O1739  O     0.00054   0.30819   0.31973   0.00000  Uiso   1.00
O1740  O     0.00145   0.31047   0.07180   0.00000  Uiso   1.00
O1741  O     0.00890   0.35121   0.94338   0.00000  Uiso   1.00
O1742  O     0.01104   0.35010   0.69761   0.00000  Uiso   1.00
O1743  O     0.00132   0.31019   0.57273   0.00000  Uiso   1.00
O1744  O     0.24690   0.51738   0.82413   0.00000  Uiso   1.00
O1745  O     0.00326   0.68685   0.44559   0.00000  Uiso   1.00
O1746  O     0.00267   0.68748   0.69904   0.00000  Uiso   1.00
O1747  O     0.00799   0.68496   0.94930   0.00000  Uiso   1.00
O1748  O     0.24612   0.85233   0.07692   0.00000  Uiso   1.00
O1749  O     0.00401   0.97515   0.82857   0.00000  Uiso   1.00
O1750  O     0.24810   0.85463   0.82910   0.00000  Uiso   1.00
O1751  O     0.24999   0.85820   0.58052   0.00000  Uiso   1.00
O1752  O     0.25331   0.14221   0.19551   0.00000  Uiso   1.00
O1753  O     0.25617   0.14817   0.44883   0.00000  Uiso   1.00
O1754  O     0.25041   0.18534   0.32120   0.00000  Uiso   1.00
O1755  O     0.25038   0.14316   0.94550   0.00000  Uiso   1.00
O1756  O     0.49035   0.31467   0.32429   0.00000  Uiso   1.00
O1757  O     0.49544   0.35851   0.45116   0.00000  Uiso   1.00
O1758  O     0.49928   0.35505   0.20014   0.00000  Uiso   1.00
O1759  O     0.49442   0.31494   0.57608   0.00000  Uiso   1.00
O1760  O     0.49961   0.31323   0.82350   0.00000  Uiso   1.00
O1761  O     0.25417   0.51601   0.07369   0.00000  Uiso   1.00
O1762  O     0.26092   0.47990   0.45275   0.00000  Uiso   1.00
O1763  O     0.25980   0.47914   0.20127   0.00000  Uiso   1.00
O1764  O     0.25311   0.52235   0.32747   0.00000  Uiso   1.00
O1765  O     0.25730   0.47617   0.70107   0.00000  Uiso   1.00
O1766  O     0.25594   0.47627   0.94991   0.00000  Uiso   1.00
O1767  O     0.25272   0.52056   0.57858   0.00000  Uiso   1.00
O1768  O     0.49538   0.64455   0.07875   0.00000  Uiso   1.00
O1769  O     0.49078   0.64573   0.32492   0.00000  Uiso   1.00
O1770  O     0.49745   0.68847   0.20311   0.00000  Uiso   1.00
O1771  O     0.49625   0.68982   0.95294   0.00000  Uiso   1.00
O1772  O     0.48789   0.64644   0.82863   0.00000  Uiso   1.00
O1773  O     0.49128   0.64512   0.57625   0.00000  Uiso   1.00
O1774  O     0.49904   0.68425   0.70027   0.00000  Uiso   1.00
O1775  O     0.25389   0.81365   0.20514   0.00000  Uiso   1.00
O1776  O     0.25938   0.81606   0.45777   0.00000  Uiso   1.00
O1777  O     0.25079   0.85586   0.32719   0.00000  Uiso   1.00
O1778  O     0.25924   0.81209   0.95489   0.00000  Uiso   1.00
O1779  O     0.25359   0.81413   0.70452   0.00000  Uiso   1.00
O1780  O     0.49954   0.98385   0.56936   0.00000  Uiso   1.00
O1781  O     0.49931   0.97811   0.82366   0.00000  Uiso   1.00
O1782  O     0.51118   0.02376   0.44628   0.00000  Uiso   1.00
O1783  O     0.50462   0.01962   0.19772   0.00000  Uiso   1.00
O1784  O     0.74697   0.18962   0.07290   0.00000  Uiso   1.00
O1785  O     0.50710   0.02208   0.95025   0.00000  Uiso   1.00
O1786  O     0.50987   0.02283   0.69743   0.00000  Uiso   1.00
O1787  O     0.50146   0.31417   0.07235   0.00000  Uiso   1.00
O1788  O     0.50679   0.35505   0.95031   0.00000  Uiso   1.00
O1789  O     0.51026   0.35318   0.69944   0.00000  Uiso   1.00
O1790  O     0.50183   0.68731   0.45308   0.00000  Uiso   1.00
O1791  O     0.74595   0.85005   0.32729   0.00000  Uiso   1.00
O1792  O     0.50001   0.97765   0.07387   0.00000  Uiso   1.00
O1793  O     0.74464   0.84988   0.07491   0.00000  Uiso   1.00
O1794  O     0.74486   0.81201   0.45449   0.00000  Uiso   1.00
O1795  O     0.50218   0.97940   0.32246   0.00000  Uiso   1.00
O1796  O     0.73901   0.84754   0.57990   0.00000  Uiso   1.00
O1797  O     0.74164   0.80428   0.70553   0.00000  Uiso   1.00
O1798  O     0.73906   0.84855   0.82674   0.00000  Uiso   1.00
O1799  O     0.75786   0.14820   0.20116   0.00000  Uiso   1.00
O1800  O     0.75863   0.14962   0.44804   0.00000  Uiso   1.00
O1801  O     0.75249   0.19314   0.32434   0.00000  Uiso   1.00
O1802  O     0.75297   0.14454   0.94529   0.00000  Uiso   1.00
O1803  O     0.76156   0.15116   0.69645   0.00000  Uiso   1.00
O1804  O     0.75249   0.19017   0.57393   0.00000  Uiso   1.00
O1805  O     0.75156   0.19085   0.82241   0.00000  Uiso   1.00
O1806  O     0.99389   0.30768   0.82190   0.00000  Uiso   1.00
O1807  O     0.76248   0.48318   0.45006   0.00000  Uiso   1.00
O1808  O     0.75448   0.47927   0.19917   0.00000  Uiso   1.00
O1809  O     0.75407   0.52242   0.07592   0.00000  Uiso   1.00
O1810  O     0.75453   0.52391   0.32292   0.00000  Uiso   1.00
O1811  O     0.75026   0.52272   0.57568   0.00000  Uiso   1.00
O1812  O     0.75930   0.48041   0.95111   0.00000  Uiso   1.00
O1813  O     0.75894   0.48136   0.70079   0.00000  Uiso   1.00
O1814  O     0.75301   0.52355   0.82460   0.00000  Uiso   1.00
O1815  O     0.99755   0.64249   0.07371   0.00000  Uiso   1.00
O1816  O     0.99427   0.64633   0.32038   0.00000  Uiso   1.00
O1817  O     0.99794   0.68763   0.19405   0.00000  Uiso   1.00
O1818  O     0.99597   0.64259   0.82334   0.00000  Uiso   1.00
O1819  O     0.99719   0.64731   0.57432   0.00000  Uiso   1.00
O1820  O     0.99550   0.97832   0.32847   0.00000  Uiso   1.00
O1821  O     0.99480   0.97651   0.08065   0.00000  Uiso   1.00
O1822  O     0.75791   0.80717   0.20236   0.00000  Uiso   1.00
O1823  O     0.75312   0.80714   0.95336   0.00000  Uiso   1.00
O1824  O     0.99906   0.97830   0.57836   0.00000  Uiso   1.00
