data_final_Br-Fe-SABVOH01
_audit_creation_date              2022-12-15
_audit_creation_method            'Materials Studio'
_symmetry_space_group_name_H-M    'P1'
_symmetry_Int_Tables_number       1
_symmetry_cell_setting            triclinic
loop_
_symmetry_equiv_pos_as_xyz
  x,y,z
_cell_length_a                    32.8643
_cell_length_b                    35.5176
_cell_length_c                    25.4294
_cell_angle_alpha                 90.0000
_cell_angle_beta                  90.0000
_cell_angle_gamma                 90.0000
loop_
_atom_site_label
_atom_site_type_symbol
_atom_site_fract_x
_atom_site_fract_y
_atom_site_fract_z
_atom_site_U_iso_or_equiv
_atom_site_adp_type
_atom_site_occupancy
Fe1    Fe    0.24939   0.16501   0.00339   0.00000  Uiso   1.00
Fe2    Fe    0.24991   0.16478   0.37628   0.00000  Uiso   1.00
Fe3    Fe    0.00136   0.33361   0.00336   0.00000  Uiso   1.00
Fe4    Fe    0.00185   0.33583   0.12917   0.00000  Uiso   1.00
Fe5    Fe    0.24968   0.50238   0.12761   0.00000  Uiso   1.00
Fe6    Fe    0.24982   0.50098   0.00298   0.00000  Uiso   1.00
Fe7    Fe    0.24867   0.50029   0.75165   0.00000  Uiso   1.00
Fe8    Fe    0.24844   0.50237   0.62557   0.00000  Uiso   1.00
Fe9    Fe    0.00156   0.66640   0.13424   0.00000  Uiso   1.00
Fe10   Fe    0.00013   0.66859   0.00871   0.00000  Uiso   1.00
Fe11   Fe    0.24879   0.83521   0.25602   0.00000  Uiso   1.00
Fe12   Fe    0.24927   0.83725   0.38228   0.00000  Uiso   1.00
Fe13   Fe    0.24712   0.83436   0.13094   0.00000  Uiso   1.00
Fe14   Fe    0.24844   0.83293   0.00546   0.00000  Uiso   1.00
Fe15   Fe    0.24942   0.83473   0.88055   0.00000  Uiso   1.00
Fe16   Fe    0.00159   0.99715   0.88067   0.00000  Uiso   1.00
Fe17   Fe    0.25063   0.16629   0.25176   0.00000  Uiso   1.00
Fe18   Fe    0.25066   0.16730   0.12776   0.00000  Uiso   1.00
Fe19   Fe    0.25144   0.16347   0.62907   0.00000  Uiso   1.00
Fe20   Fe    0.25039   0.16365   0.50237   0.00000  Uiso   1.00
Fe21   Fe    0.25001   0.16506   0.87850   0.00000  Uiso   1.00
Fe22   Fe    0.25145   0.16379   0.75453   0.00000  Uiso   1.00
Fe23   Fe    0.25039   0.50048   0.37566   0.00000  Uiso   1.00
Fe24   Fe    0.25171   0.49866   0.25239   0.00000  Uiso   1.00
Fe25   Fe    0.25213   0.50023   0.49991   0.00000  Uiso   1.00
Fe26   Fe    0.25278   0.49983   0.87652   0.00000  Uiso   1.00
Fe27   Fe    0.49747   0.67061   0.12682   0.00000  Uiso   1.00
Fe28   Fe    0.49899   0.66910   0.00366   0.00000  Uiso   1.00
Fe29   Fe    0.49801   0.67116   0.25112   0.00000  Uiso   1.00
Fe30   Fe    0.49920   0.66902   0.37662   0.00000  Uiso   1.00
Fe31   Fe    0.49894   0.66525   0.87956   0.00000  Uiso   1.00
Fe32   Fe    0.49915   0.66652   0.75342   0.00000  Uiso   1.00
Fe33   Fe    0.49908   0.66495   0.62757   0.00000  Uiso   1.00
Fe34   Fe    0.49882   0.66690   0.50246   0.00000  Uiso   1.00
Fe35   Fe    0.49867   0.99775   0.00563   0.00000  Uiso   1.00
Fe36   Fe    0.49954   0.99949   0.25711   0.00000  Uiso   1.00
Fe37   Fe    0.49742   0.99782   0.13096   0.00000  Uiso   1.00
Fe38   Fe    0.25038   0.83423   0.50710   0.00000  Uiso   1.00
Fe39   Fe    0.25177   0.83543   0.63148   0.00000  Uiso   1.00
Fe40   Fe    0.25216   0.83278   0.75694   0.00000  Uiso   1.00
Fe41   Fe    0.50222   0.00008   0.63175   0.00000  Uiso   1.00
Fe42   Fe    0.74921   0.16752   0.63185   0.00000  Uiso   1.00
Fe43   Fe    0.50346   0.33400   0.13195   0.00000  Uiso   1.00
Fe44   Fe    0.50103   0.33129   0.38139   0.00000  Uiso   1.00
Fe45   Fe    0.50359   0.33390   0.25659   0.00000  Uiso   1.00
Fe46   Fe    0.50224   0.33673   0.00762   0.00000  Uiso   1.00
Fe47   Fe    0.50195   0.33416   0.88319   0.00000  Uiso   1.00
Fe48   Fe    0.50218   0.33347   0.75987   0.00000  Uiso   1.00
Fe49   Fe    0.50089   0.33170   0.63330   0.00000  Uiso   1.00
Fe50   Fe    0.50034   0.33128   0.50810   0.00000  Uiso   1.00
Fe51   Fe    0.74983   0.50146   0.00268   0.00000  Uiso   1.00
Fe52   Fe    0.74890   0.50227   0.12888   0.00000  Uiso   1.00
Fe53   Fe    0.74865   0.50264   0.38034   0.00000  Uiso   1.00
Fe54   Fe    0.74852   0.50099   0.25531   0.00000  Uiso   1.00
Fe55   Fe    0.74874   0.50283   0.50502   0.00000  Uiso   1.00
Fe56   Fe    0.74893   0.50084   0.75340   0.00000  Uiso   1.00
Fe57   Fe    0.74999   0.50121   0.87844   0.00000  Uiso   1.00
Fe58   Fe    0.50165   0.99778   0.38107   0.00000  Uiso   1.00
Fe59   Fe    0.74941   0.83464   0.37995   0.00000  Uiso   1.00
Fe60   Fe    0.74945   0.83334   0.25573   0.00000  Uiso   1.00
Fe61   Fe    0.74929   0.83041   0.00513   0.00000  Uiso   1.00
Fe62   Fe    0.74990   0.83048   0.75473   0.00000  Uiso   1.00
Fe63   Fe    0.74897   0.83237   0.50399   0.00000  Uiso   1.00
Fe64   Fe    0.50007   0.99818   0.88086   0.00000  Uiso   1.00
Fe65   Fe    0.50353   0.99959   0.50709   0.00000  Uiso   1.00
Fe66   Fe    0.50184   0.99896   0.75646   0.00000  Uiso   1.00
Fe67   Fe    0.75082   0.16351   0.00554   0.00000  Uiso   1.00
Fe68   Fe    0.75206   0.16843   0.38132   0.00000  Uiso   1.00
Fe69   Fe    0.75200   0.16699   0.25643   0.00000  Uiso   1.00
Fe70   Fe    0.75140   0.16590   0.13098   0.00000  Uiso   1.00
Fe71   Fe    0.75026   0.16654   0.50674   0.00000  Uiso   1.00
Fe72   Fe    0.75047   0.16646   0.88258   0.00000  Uiso   1.00
Fe73   Fe    0.75088   0.16492   0.75767   0.00000  Uiso   1.00
Fe74   Fe    0.99961   0.33566   0.37637   0.00000  Uiso   1.00
Fe75   Fe    0.99985   0.33778   0.25188   0.00000  Uiso   1.00
Fe76   Fe    0.99961   0.33339   0.62666   0.00000  Uiso   1.00
Fe77   Fe    0.99992   0.33664   0.50156   0.00000  Uiso   1.00
Fe78   Fe    0.99993   0.33395   0.88011   0.00000  Uiso   1.00
Fe79   Fe    0.99898   0.33355   0.75363   0.00000  Uiso   1.00
Fe80   Fe    0.75091   0.50393   0.62843   0.00000  Uiso   1.00
Fe81   Fe    0.99925   0.67067   0.38300   0.00000  Uiso   1.00
Fe82   Fe    0.99913   0.66895   0.25823   0.00000  Uiso   1.00
Fe83   Fe    0.99878   0.66688   0.88245   0.00000  Uiso   1.00
Fe84   Fe    0.99991   0.66778   0.51076   0.00000  Uiso   1.00
Fe85   Fe    0.99800   0.66685   0.75905   0.00000  Uiso   1.00
Fe86   Fe    0.99942   0.66543   0.63448   0.00000  Uiso   1.00
Fe87   Fe    0.99824   0.99721   0.38140   0.00000  Uiso   1.00
Fe88   Fe    0.99807   0.99678   0.13111   0.00000  Uiso   1.00
Fe89   Fe    0.99706   0.99743   0.25564   0.00000  Uiso   1.00
Fe90   Fe    0.75101   0.83381   0.13021   0.00000  Uiso   1.00
Fe91   Fe    0.99991   0.99810   0.00754   0.00000  Uiso   1.00
Fe92   Fe    0.75011   0.82995   0.87954   0.00000  Uiso   1.00
Fe93   Fe    0.99831   0.99832   0.75609   0.00000  Uiso   1.00
Fe94   Fe    0.99729   0.99655   0.50578   0.00000  Uiso   1.00
Fe95   Fe    0.99814   0.99494   0.63118   0.00000  Uiso   1.00
Fe96   Fe    0.75013   0.83229   0.63038   0.00000  Uiso   1.00
Br97   Br    0.11959   0.16312   0.34284   0.00000  Uiso   1.00
Br98   Br    0.11643   0.15807   0.09959   0.00000  Uiso   1.00
Br99   Br    0.11218   0.15991   0.84096   0.00000  Uiso   1.00
Br100  Br    0.11448   0.15911   0.59615   0.00000  Uiso   1.00
Br101  Br    0.13410   0.32694   0.21892   0.00000  Uiso   1.00
Br102  Br    0.13511   0.32973   0.47121   0.00000  Uiso   1.00
Br103  Br    0.13255   0.32682   0.72147   0.00000  Uiso   1.00
Br104  Br    0.13211   0.32650   0.97169   0.00000  Uiso   1.00
Br105  Br    0.11099   0.49291   0.10637   0.00000  Uiso   1.00
Br106  Br    0.11397   0.50039   0.34114   0.00000  Uiso   1.00
Br107  Br    0.11197   0.49681   0.59625   0.00000  Uiso   1.00
Br108  Br    0.11263   0.49517   0.83937   0.00000  Uiso   1.00
Br109  Br    0.13121   0.66614   0.22252   0.00000  Uiso   1.00
Br110  Br    0.13518   0.66203   0.47439   0.00000  Uiso   1.00
Br111  Br    0.13847   0.65834   0.72215   0.00000  Uiso   1.00
Br112  Br    0.13883   0.65238   0.98136   0.00000  Uiso   1.00
Br113  Br    0.11243   0.82028   0.10592   0.00000  Uiso   1.00
Br114  Br    0.11889   0.82836   0.34466   0.00000  Uiso   1.00
Br115  Br    0.13877   0.98709   0.47632   0.00000  Uiso   1.00
Br116  Br    0.13460   0.98660   0.22063   0.00000  Uiso   1.00
Br117  Br    0.11401   0.82380   0.60435   0.00000  Uiso   1.00
Br118  Br    0.11508   0.82918   0.84080   0.00000  Uiso   1.00
Br119  Br    0.13593   0.98428   0.98405   0.00000  Uiso   1.00
Br120  Br    0.12833   0.99619   0.71602   0.00000  Uiso   1.00
Br121  Br    0.38545   0.17130   0.22250   0.00000  Uiso   1.00
Br122  Br    0.38666   0.17172   0.46414   0.00000  Uiso   1.00
Br123  Br    0.35804   0.01134   0.10736   0.00000  Uiso   1.00
Br124  Br    0.36183   0.00946   0.35199   0.00000  Uiso   1.00
Br125  Br    0.38405   0.16797   0.72046   0.00000  Uiso   1.00
Br126  Br    0.38492   0.17344   0.97061   0.00000  Uiso   1.00
Br127  Br    0.36118   0.00794   0.84130   0.00000  Uiso   1.00
Br128  Br    0.36995   0.00483   0.59245   0.00000  Uiso   1.00
Br129  Br    0.37354   0.34166   0.09421   0.00000  Uiso   1.00
Br130  Br    0.35967   0.33947   0.34712   0.00000  Uiso   1.00
Br131  Br    0.36948   0.33579   0.59780   0.00000  Uiso   1.00
Br132  Br    0.36549   0.33926   0.84711   0.00000  Uiso   1.00
Br133  Br    0.38812   0.50566   0.21887   0.00000  Uiso   1.00
Br134  Br    0.38677   0.50085   0.46696   0.00000  Uiso   1.00
Br135  Br    0.39102   0.50819   0.71982   0.00000  Uiso   1.00
Br136  Br    0.38637   0.50528   0.96661   0.00000  Uiso   1.00
Br137  Br    0.35557   0.68361   0.10467   0.00000  Uiso   1.00
Br138  Br    0.36303   0.68206   0.34486   0.00000  Uiso   1.00
Br139  Br    0.36350   0.67559   0.59365   0.00000  Uiso   1.00
Br140  Br    0.36029   0.68282   0.85790   0.00000  Uiso   1.00
Br141  Br    0.38392   0.83867   0.46760   0.00000  Uiso   1.00
Br142  Br    0.38033   0.84192   0.21734   0.00000  Uiso   1.00
Br143  Br    0.38400   0.84193   0.96948   0.00000  Uiso   1.00
Br144  Br    0.38932   0.84152   0.72649   0.00000  Uiso   1.00
Br145  Br    0.61750   0.16120   0.34977   0.00000  Uiso   1.00
Br146  Br    0.61677   0.15552   0.10157   0.00000  Uiso   1.00
Br147  Br    0.61493   0.16075   0.85425   0.00000  Uiso   1.00
Br148  Br    0.62021   0.16084   0.59967   0.00000  Uiso   1.00
Br149  Br    0.63973   0.32436   0.22717   0.00000  Uiso   1.00
Br150  Br    0.63946   0.32109   0.47406   0.00000  Uiso   1.00
Br151  Br    0.63869   0.32460   0.72218   0.00000  Uiso   1.00
Br152  Br    0.63088   0.33378   0.97199   0.00000  Uiso   1.00
Br153  Br    0.61098   0.49196   0.10280   0.00000  Uiso   1.00
Br154  Br    0.60940   0.48965   0.35129   0.00000  Uiso   1.00
Br155  Br    0.61881   0.49665   0.59398   0.00000  Uiso   1.00
Br156  Br    0.60978   0.48777   0.84886   0.00000  Uiso   1.00
Br157  Br    0.63682   0.66033   0.22371   0.00000  Uiso   1.00
Br158  Br    0.63312   0.66559   0.46421   0.00000  Uiso   1.00
Br159  Br    0.63388   0.65833   0.72441   0.00000  Uiso   1.00
Br160  Br    0.63399   0.66148   0.96992   0.00000  Uiso   1.00
Br161  Br    0.61390   0.81942   0.10592   0.00000  Uiso   1.00
Br162  Br    0.61345   0.83021   0.33960   0.00000  Uiso   1.00
Br163  Br    0.63913   0.99014   0.22503   0.00000  Uiso   1.00
Br164  Br    0.63626   0.99475   0.46678   0.00000  Uiso   1.00
Br165  Br    0.60917   0.81886   0.60099   0.00000  Uiso   1.00
Br166  Br    0.61407   0.82085   0.85080   0.00000  Uiso   1.00
Br167  Br    0.63912   0.98509   0.98066   0.00000  Uiso   1.00
Br168  Br    0.63299   0.99513   0.71982   0.00000  Uiso   1.00
Br169  Br    0.88488   0.17505   0.22447   0.00000  Uiso   1.00
Br170  Br    0.88626   0.17000   0.47355   0.00000  Uiso   1.00
Br171  Br    0.86284   0.01453   0.35788   0.00000  Uiso   1.00
Br172  Br    0.86307   0.00769   0.09486   0.00000  Uiso   1.00
Br173  Br    0.88354   0.17496   0.73461   0.00000  Uiso   1.00
Br174  Br    0.88464   0.16349   0.96523   0.00000  Uiso   1.00
Br175  Br    0.86655   0.00569   0.60099   0.00000  Uiso   1.00
Br176  Br    0.87618   0.32921   0.08388   0.00000  Uiso   1.00
Br177  Br    0.86366   0.33826   0.34198   0.00000  Uiso   1.00
Br178  Br    0.86211   0.34159   0.59570   0.00000  Uiso   1.00
Br179  Br    0.86325   0.34072   0.85634   0.00000  Uiso   1.00
Br180  Br    0.88219   0.50485   0.21574   0.00000  Uiso   1.00
Br181  Br    0.88345   0.50796   0.46979   0.00000  Uiso   1.00
Br182  Br    0.88356   0.50441   0.71344   0.00000  Uiso   1.00
Br183  Br    0.88582   0.51121   0.97396   0.00000  Uiso   1.00
Br184  Br    0.86569   0.67833   0.10193   0.00000  Uiso   1.00
Br185  Br    0.85839   0.68408   0.35426   0.00000  Uiso   1.00
Br186  Br    0.86523   0.67481   0.59843   0.00000  Uiso   1.00
Br187  Br    0.86420   0.68069   0.84878   0.00000  Uiso   1.00
Br188  Br    0.88636   0.83798   0.47232   0.00000  Uiso   1.00
Br189  Br    0.88308   0.84192   0.22128   0.00000  Uiso   1.00
Br190  Br    0.89085   0.83477   0.72069   0.00000  Uiso   1.00
Br191  Br    0.88221   0.83616   0.96967   0.00000  Uiso   1.00
Br192  Br    0.86893   0.99498   0.83667   0.00000  Uiso   1.00
H193   H     0.10589   0.05215   0.15088   0.00000  Uiso   1.00
H194   H     0.16626   0.08904   0.15092   0.00000  Uiso   1.00
H195   H     0.19401   0.04934   0.23711   0.00000  Uiso   1.00
H196   H     0.10985   0.05531   0.39853   0.00000  Uiso   1.00
H197   H     0.17387   0.07976   0.40181   0.00000  Uiso   1.00
H198   H     0.01353   0.04052   0.19460   0.00000  Uiso   1.00
H199   H     0.02023   0.04032   0.44470   0.00000  Uiso   1.00
H200   H     0.20017   0.04628   0.49444   0.00000  Uiso   1.00
H201   H     0.09975   0.06275   0.64116   0.00000  Uiso   1.00
H202   H     0.16167   0.09415   0.64776   0.00000  Uiso   1.00
H203   H     0.02408   0.04070   0.94483   0.00000  Uiso   1.00
H204   H     0.19741   0.04818   0.73699   0.00000  Uiso   1.00
H205   H     0.11361   0.04234   0.90052   0.00000  Uiso   1.00
H206   H     0.17295   0.07832   0.90019   0.00000  Uiso   1.00
H207   H     0.02741   0.03317   0.69312   0.00000  Uiso   1.00
H208   H     0.19716   0.04352   0.99918   0.00000  Uiso   1.00
H209   H     0.11033   0.39180   0.14732   0.00000  Uiso   1.00
H210   H     0.02112   0.38134   0.44098   0.00000  Uiso   1.00
H211   H     0.05566   0.21639   0.36721   0.00000  Uiso   1.00
H212   H     0.05728   0.22409   0.11043   0.00000  Uiso   1.00
H213   H     0.07768   0.24920   0.02464   0.00000  Uiso   1.00
H214   H     0.01520   0.38326   0.19470   0.00000  Uiso   1.00
H215   H     0.14067   0.21465   0.02345   0.00000  Uiso   1.00
H216   H     0.07745   0.25612   0.27499   0.00000  Uiso   1.00
H217   H     0.20079   0.38440   0.24197   0.00000  Uiso   1.00
H218   H     0.22650   0.20729   0.31498   0.00000  Uiso   1.00
H219   H     0.22436   0.20771   0.06713   0.00000  Uiso   1.00
H220   H     0.13946   0.22410   0.27001   0.00000  Uiso   1.00
H221   H     0.11031   0.38380   0.39505   0.00000  Uiso   1.00
H222   H     0.19535   0.38702   0.48697   0.00000  Uiso   1.00
H223   H     0.05029   0.21966   0.86387   0.00000  Uiso   1.00
H224   H     0.20236   0.38223   0.74570   0.00000  Uiso   1.00
H225   H     0.22589   0.20481   0.57144   0.00000  Uiso   1.00
H226   H     0.08359   0.25772   0.52340   0.00000  Uiso   1.00
H227   H     0.04901   0.21334   0.61962   0.00000  Uiso   1.00
H228   H     0.14602   0.21887   0.52189   0.00000  Uiso   1.00
H229   H     0.08751   0.26088   0.76951   0.00000  Uiso   1.00
H230   H     0.22291   0.20530   0.81218   0.00000  Uiso   1.00
H231   H     0.10738   0.39187   0.64718   0.00000  Uiso   1.00
H232   H     0.02427   0.37505   0.94165   0.00000  Uiso   1.00
H233   H     0.14784   0.22495   0.76588   0.00000  Uiso   1.00
H234   H     0.02086   0.37700   0.69200   0.00000  Uiso   1.00
H235   H     0.20386   0.37931   0.99618   0.00000  Uiso   1.00
H236   H     0.10691   0.39203   0.89797   0.00000  Uiso   1.00
H237   H     0.04709   0.54705   0.13108   0.00000  Uiso   1.00
H238   H     0.22826   0.54270   0.31604   0.00000  Uiso   1.00
H239   H     0.17168   0.42362   0.14432   0.00000  Uiso   1.00
H240   H     0.05107   0.55453   0.36912   0.00000  Uiso   1.00
H241   H     0.15144   0.56491   0.26962   0.00000  Uiso   1.00
H242   H     0.08086   0.58590   0.02544   0.00000  Uiso   1.00
H243   H     0.08492   0.59691   0.27634   0.00000  Uiso   1.00
H244   H     0.14575   0.55465   0.01953   0.00000  Uiso   1.00
H245   H     0.17342   0.41762   0.39717   0.00000  Uiso   1.00
H246   H     0.21228   0.53275   0.06311   0.00000  Uiso   1.00
H247   H     0.04629   0.54327   0.62587   0.00000  Uiso   1.00
H248   H     0.16731   0.42603   0.89761   0.00000  Uiso   1.00
H249   H     0.14374   0.55900   0.52350   0.00000  Uiso   1.00
H250   H     0.22280   0.54360   0.55999   0.00000  Uiso   1.00
H251   H     0.04360   0.55077   0.87141   0.00000  Uiso   1.00
H252   H     0.23052   0.54333   0.81420   0.00000  Uiso   1.00
H253   H     0.14696   0.56144   0.76754   0.00000  Uiso   1.00
H254   H     0.17206   0.42218   0.64804   0.00000  Uiso   1.00
H255   H     0.07756   0.58614   0.77973   0.00000  Uiso   1.00
H256   H     0.07189   0.57679   0.52985   0.00000  Uiso   1.00
H257   H     0.03175   0.70555   0.44883   0.00000  Uiso   1.00
H258   H     0.10409   0.72559   0.14502   0.00000  Uiso   1.00
H259   H     0.17087   0.75396   0.15404   0.00000  Uiso   1.00
H260   H     0.02164   0.71124   0.19523   0.00000  Uiso   1.00
H261   H     0.19779   0.72194   0.25186   0.00000  Uiso   1.00
H262   H     0.10121   0.73263   0.40075   0.00000  Uiso   1.00
H263   H     0.17262   0.75690   0.40780   0.00000  Uiso   1.00
H264   H     0.19818   0.71743   0.49642   0.00000  Uiso   1.00
H265   H     0.02018   0.71018   0.94582   0.00000  Uiso   1.00
H266   H     0.11042   0.72139   0.65425   0.00000  Uiso   1.00
H267   H     0.17174   0.75816   0.65145   0.00000  Uiso   1.00
H268   H     0.19367   0.71734   0.73542   0.00000  Uiso   1.00
H269   H     0.11330   0.71154   0.90311   0.00000  Uiso   1.00
H270   H     0.17532   0.74600   0.90138   0.00000  Uiso   1.00
H271   H     0.02924   0.70345   0.69569   0.00000  Uiso   1.00
H272   H     0.19844   0.71433   0.99440   0.00000  Uiso   1.00
H273   H     0.05053   0.87908   0.12325   0.00000  Uiso   1.00
H274   H     0.07896   0.91747   0.02751   0.00000  Uiso   1.00
H275   H     0.22428   0.87684   0.31664   0.00000  Uiso   1.00
H276   H     0.05076   0.87808   0.36823   0.00000  Uiso   1.00
H277   H     0.13964   0.88747   0.27722   0.00000  Uiso   1.00
H278   H     0.07287   0.92045   0.27941   0.00000  Uiso   1.00
H279   H     0.22537   0.87640   0.06810   0.00000  Uiso   1.00
H280   H     0.13767   0.88044   0.02799   0.00000  Uiso   1.00
H281   H     0.04961   0.87921   0.61875   0.00000  Uiso   1.00
H282   H     0.07877   0.92230   0.52346   0.00000  Uiso   1.00
H283   H     0.13937   0.88893   0.52313   0.00000  Uiso   1.00
H284   H     0.05056   0.88056   0.86946   0.00000  Uiso   1.00
H285   H     0.14458   0.89558   0.77531   0.00000  Uiso   1.00
H286   H     0.07309   0.91478   0.77898   0.00000  Uiso   1.00
H287   H     0.22719   0.87922   0.56627   0.00000  Uiso   1.00
H288   H     0.22535   0.87492   0.82079   0.00000  Uiso   1.00
H289   H     0.44947   0.11902   0.24908   0.00000  Uiso   1.00
H290   H     0.35843   0.11280   0.14931   0.00000  Uiso   1.00
H291   H     0.41931   0.07979   0.15293   0.00000  Uiso   1.00
H292   H     0.27082   0.11988   0.44567   0.00000  Uiso   1.00
H293   H     0.27311   0.12334   0.19017   0.00000  Uiso   1.00
H294   H     0.35270   0.10526   0.39520   0.00000  Uiso   1.00
H295   H     0.41879   0.07589   0.40386   0.00000  Uiso   1.00
H296   H     0.45793   0.12097   0.49664   0.00000  Uiso   1.00
H297   H     0.45486   0.11962   0.75285   0.00000  Uiso   1.00
H298   H     0.35929   0.10935   0.64413   0.00000  Uiso   1.00
H299   H     0.42356   0.08308   0.64744   0.00000  Uiso   1.00
H300   H     0.28258   0.12298   0.69134   0.00000  Uiso   1.00
H301   H     0.35829   0.10788   0.90064   0.00000  Uiso   1.00
H302   H     0.42121   0.07548   0.90311   0.00000  Uiso   1.00
H303   H     0.27028   0.12271   0.93792   0.00000  Uiso   1.00
H304   H     0.44965   0.11635   0.99071   0.00000  Uiso   1.00
H305   H     0.47722   0.29343   0.06267   0.00000  Uiso   1.00
H306   H     0.33156   0.24465   0.02855   0.00000  Uiso   1.00
H307   H     0.30977   0.27865   0.10707   0.00000  Uiso   1.00
H308   H     0.39543   0.27614   0.26887   0.00000  Uiso   1.00
H309   H     0.33506   0.24021   0.26339   0.00000  Uiso   1.00
H310   H     0.29479   0.28549   0.36995   0.00000  Uiso   1.00
H311   H     0.39844   0.27487   0.02368   0.00000  Uiso   1.00
H312   H     0.47275   0.29378   0.31733   0.00000  Uiso   1.00
H313   H     0.38985   0.27037   0.52056   0.00000  Uiso   1.00
H314   H     0.32441   0.24531   0.52337   0.00000  Uiso   1.00
H315   H     0.30833   0.28052   0.61609   0.00000  Uiso   1.00
H316   H     0.39290   0.28185   0.78094   0.00000  Uiso   1.00
H317   H     0.32939   0.24678   0.78260   0.00000  Uiso   1.00
H318   H     0.30344   0.28409   0.87196   0.00000  Uiso   1.00
H319   H     0.47714   0.29508   0.82108   0.00000  Uiso   1.00
H320   H     0.48744   0.28556   0.57151   0.00000  Uiso   1.00
H321   H     0.45855   0.45643   0.25044   0.00000  Uiso   1.00
H322   H     0.35414   0.45208   0.15136   0.00000  Uiso   1.00
H323   H     0.32737   0.58262   0.27245   0.00000  Uiso   1.00
H324   H     0.36035   0.44204   0.39181   0.00000  Uiso   1.00
H325   H     0.41646   0.41470   0.15271   0.00000  Uiso   1.00
H326   H     0.27335   0.45756   0.18882   0.00000  Uiso   1.00
H327   H     0.27570   0.45490   0.43706   0.00000  Uiso   1.00
H328   H     0.31931   0.58098   0.02171   0.00000  Uiso   1.00
H329   H     0.41960   0.40653   0.39575   0.00000  Uiso   1.00
H330   H     0.44859   0.44601   0.49036   0.00000  Uiso   1.00
H331   H     0.45252   0.45449   0.00166   0.00000  Uiso   1.00
H332   H     0.33080   0.57492   0.51693   0.00000  Uiso   1.00
H333   H     0.45276   0.45276   0.74758   0.00000  Uiso   1.00
H334   H     0.36046   0.44713   0.64433   0.00000  Uiso   1.00
H335   H     0.42254   0.41299   0.65087   0.00000  Uiso   1.00
H336   H     0.27835   0.45889   0.94018   0.00000  Uiso   1.00
H337   H     0.35463   0.44254   0.89145   0.00000  Uiso   1.00
H338   H     0.42190   0.41148   0.89747   0.00000  Uiso   1.00
H339   H     0.27301   0.46052   0.68412   0.00000  Uiso   1.00
H340   H     0.32048   0.58869   0.77483   0.00000  Uiso   1.00
H341   H     0.38712   0.60817   0.02161   0.00000  Uiso   1.00
H342   H     0.29453   0.62332   0.12317   0.00000  Uiso   1.00
H343   H     0.35833   0.78454   0.14383   0.00000  Uiso   1.00
H344   H     0.42605   0.75472   0.14633   0.00000  Uiso   1.00
H345   H     0.27283   0.79521   0.19343   0.00000  Uiso   1.00
H346   H     0.30442   0.62326   0.36333   0.00000  Uiso   1.00
H347   H     0.42255   0.75298   0.39590   0.00000  Uiso   1.00
H348   H     0.48411   0.62402   0.31239   0.00000  Uiso   1.00
H349   H     0.44946   0.78279   0.48986   0.00000  Uiso   1.00
H350   H     0.44672   0.79006   0.23810   0.00000  Uiso   1.00
H351   H     0.35396   0.77634   0.39335   0.00000  Uiso   1.00
H352   H     0.47066   0.62665   0.06822   0.00000  Uiso   1.00
H353   H     0.39186   0.61068   0.27206   0.00000  Uiso   1.00
H354   H     0.27384   0.79193   0.44324   0.00000  Uiso   1.00
H355   H     0.48543   0.61781   0.56582   0.00000  Uiso   1.00
H356   H     0.39410   0.61155   0.51978   0.00000  Uiso   1.00
H357   H     0.43321   0.75902   0.65391   0.00000  Uiso   1.00
H358   H     0.27898   0.79608   0.94311   0.00000  Uiso   1.00
H359   H     0.47675   0.62337   0.81236   0.00000  Uiso   1.00
H360   H     0.35795   0.78203   0.90205   0.00000  Uiso   1.00
H361   H     0.30027   0.61513   0.61265   0.00000  Uiso   1.00
H362   H     0.41679   0.74170   0.90295   0.00000  Uiso   1.00
H363   H     0.36402   0.78722   0.65002   0.00000  Uiso   1.00
H364   H     0.38961   0.61993   0.77154   0.00000  Uiso   1.00
H365   H     0.29282   0.62487   0.86883   0.00000  Uiso   1.00
H366   H     0.44494   0.78459   0.98411   0.00000  Uiso   1.00
H367   H     0.45315   0.78708   0.75127   0.00000  Uiso   1.00
H368   H     0.26961   0.78794   0.69455   0.00000  Uiso   1.00
H369   H     0.32582   0.91727   0.02274   0.00000  Uiso   1.00
H370   H     0.29815   0.95284   0.11682   0.00000  Uiso   1.00
H371   H     0.39253   0.94237   0.26832   0.00000  Uiso   1.00
H372   H     0.32748   0.90701   0.27481   0.00000  Uiso   1.00
H373   H     0.30063   0.95371   0.37187   0.00000  Uiso   1.00
H374   H     0.46698   0.95830   0.06956   0.00000  Uiso   1.00
H375   H     0.47065   0.95896   0.31785   0.00000  Uiso   1.00
H376   H     0.38722   0.95090   0.02510   0.00000  Uiso   1.00
H377   H     0.39519   0.94336   0.52399   0.00000  Uiso   1.00
H378   H     0.32984   0.91340   0.52795   0.00000  Uiso   1.00
H379   H     0.47129   0.96175   0.56846   0.00000  Uiso   1.00
H380   H     0.29846   0.95338   0.62490   0.00000  Uiso   1.00
H381   H     0.39546   0.94523   0.77473   0.00000  Uiso   1.00
H382   H     0.33306   0.91191   0.77893   0.00000  Uiso   1.00
H383   H     0.30040   0.94968   0.86251   0.00000  Uiso   1.00
H384   H     0.47317   0.95899   0.82056   0.00000  Uiso   1.00
H385   H     0.52176   0.04118   0.19002   0.00000  Uiso   1.00
H386   H     0.60503   0.05326   0.14839   0.00000  Uiso   1.00
H387   H     0.67092   0.08516   0.15315   0.00000  Uiso   1.00
H388   H     0.70394   0.04574   0.24948   0.00000  Uiso   1.00
H389   H     0.59844   0.06123   0.38933   0.00000  Uiso   1.00
H390   H     0.66741   0.09031   0.39594   0.00000  Uiso   1.00
H391   H     0.53463   0.03589   0.44235   0.00000  Uiso   1.00
H392   H     0.69614   0.06066   0.48763   0.00000  Uiso   1.00
H393   H     0.52604   0.04333   0.69404   0.00000  Uiso   1.00
H394   H     0.61474   0.05479   0.65112   0.00000  Uiso   1.00
H395   H     0.67946   0.07860   0.65329   0.00000  Uiso   1.00
H396   H     0.69494   0.05064   0.74735   0.00000  Uiso   1.00
H397   H     0.60971   0.05027   0.90431   0.00000  Uiso   1.00
H398   H     0.67589   0.07626   0.91014   0.00000  Uiso   1.00
H399   H     0.51713   0.04323   0.94260   0.00000  Uiso   1.00
H400   H     0.70006   0.04678   0.99624   0.00000  Uiso   1.00
H401   H     0.69693   0.38525   0.48817   0.00000  Uiso   1.00
H402   H     0.52310   0.37955   0.19769   0.00000  Uiso   1.00
H403   H     0.55288   0.21628   0.36354   0.00000  Uiso   1.00
H404   H     0.58475   0.25855   0.02778   0.00000  Uiso   1.00
H405   H     0.64196   0.22346   0.27575   0.00000  Uiso   1.00
H406   H     0.61518   0.38558   0.15427   0.00000  Uiso   1.00
H407   H     0.64798   0.22767   0.02502   0.00000  Uiso   1.00
H408   H     0.58350   0.25355   0.27472   0.00000  Uiso   1.00
H409   H     0.52677   0.37113   0.44558   0.00000  Uiso   1.00
H410   H     0.55026   0.21013   0.12257   0.00000  Uiso   1.00
H411   H     0.70167   0.38445   0.24896   0.00000  Uiso   1.00
H412   H     0.73219   0.20743   0.06840   0.00000  Uiso   1.00
H413   H     0.73199   0.21230   0.31615   0.00000  Uiso   1.00
H414   H     0.60209   0.39305   0.39606   0.00000  Uiso   1.00
H415   H     0.52298   0.38145   0.94600   0.00000  Uiso   1.00
H416   H     0.63892   0.22152   0.52516   0.00000  Uiso   1.00
H417   H     0.61072   0.38730   0.89555   0.00000  Uiso   1.00
H418   H     0.55096   0.21740   0.62020   0.00000  Uiso   1.00
H419   H     0.73010   0.21247   0.56702   0.00000  Uiso   1.00
H420   H     0.57399   0.24902   0.52375   0.00000  Uiso   1.00
H421   H     0.70069   0.38048   0.73800   0.00000  Uiso   1.00
H422   H     0.53582   0.36495   0.69613   0.00000  Uiso   1.00
H423   H     0.57372   0.24690   0.78204   0.00000  Uiso   1.00
H424   H     0.64178   0.21780   0.77639   0.00000  Uiso   1.00
H425   H     0.61248   0.38249   0.64760   0.00000  Uiso   1.00
H426   H     0.72527   0.20869   0.81555   0.00000  Uiso   1.00
H427   H     0.55298   0.21601   0.87772   0.00000  Uiso   1.00
H428   H     0.70335   0.38361   0.98915   0.00000  Uiso   1.00
H429   H     0.54980   0.54791   0.12255   0.00000  Uiso   1.00
H430   H     0.67934   0.41773   0.15166   0.00000  Uiso   1.00
H431   H     0.63944   0.55103   0.02511   0.00000  Uiso   1.00
H432   H     0.54868   0.54766   0.36615   0.00000  Uiso   1.00
H433   H     0.64599   0.56146   0.26907   0.00000  Uiso   1.00
H434   H     0.57681   0.58268   0.02979   0.00000  Uiso   1.00
H435   H     0.58193   0.59789   0.26975   0.00000  Uiso   1.00
H436   H     0.73869   0.54842   0.31651   0.00000  Uiso   1.00
H437   H     0.73083   0.54766   0.06799   0.00000  Uiso   1.00
H438   H     0.66880   0.42370   0.40539   0.00000  Uiso   1.00
H439   H     0.54882   0.54098   0.62240   0.00000  Uiso   1.00
H440   H     0.58025   0.59580   0.51853   0.00000  Uiso   1.00
H441   H     0.67199   0.42070   0.65035   0.00000  Uiso   1.00
H442   H     0.72940   0.54994   0.56554   0.00000  Uiso   1.00
H443   H     0.54422   0.54681   0.87208   0.00000  Uiso   1.00
H444   H     0.71883   0.53883   0.81635   0.00000  Uiso   1.00
H445   H     0.64192   0.55615   0.77278   0.00000  Uiso   1.00
H446   H     0.68036   0.41610   0.89966   0.00000  Uiso   1.00
H447   H     0.64199   0.56636   0.51618   0.00000  Uiso   1.00
H448   H     0.58218   0.58925   0.77201   0.00000  Uiso   1.00
H449   H     0.61053   0.71842   0.15206   0.00000  Uiso   1.00
H450   H     0.67266   0.75093   0.15190   0.00000  Uiso   1.00
H451   H     0.52555   0.71199   0.18944   0.00000  Uiso   1.00
H452   H     0.70683   0.71204   0.25108   0.00000  Uiso   1.00
H453   H     0.60237   0.73083   0.39132   0.00000  Uiso   1.00
H454   H     0.67284   0.75456   0.40124   0.00000  Uiso   1.00
H455   H     0.51941   0.71306   0.44124   0.00000  Uiso   1.00
H456   H     0.69989   0.71349   0.49601   0.00000  Uiso   1.00
H457   H     0.60955   0.71929   0.64912   0.00000  Uiso   1.00
H458   H     0.67013   0.75274   0.65024   0.00000  Uiso   1.00
H459   H     0.70273   0.71011   0.74737   0.00000  Uiso   1.00
H460   H     0.60736   0.72203   0.89680   0.00000  Uiso   1.00
H461   H     0.67119   0.74745   0.90488   0.00000  Uiso   1.00
H462   H     0.51965   0.71255   0.93848   0.00000  Uiso   1.00
H463   H     0.52269   0.71064   0.68972   0.00000  Uiso   1.00
H464   H     0.69772   0.71801   0.99103   0.00000  Uiso   1.00
H465   H     0.55226   0.87885   0.12208   0.00000  Uiso   1.00
H466   H     0.63973   0.88359   0.02702   0.00000  Uiso   1.00
H467   H     0.57524   0.91433   0.03092   0.00000  Uiso   1.00
H468   H     0.55229   0.88151   0.36310   0.00000  Uiso   1.00
H469   H     0.64690   0.89037   0.27328   0.00000  Uiso   1.00
H470   H     0.58225   0.92109   0.27871   0.00000  Uiso   1.00
H471   H     0.73167   0.87769   0.06935   0.00000  Uiso   1.00
H472   H     0.72892   0.87916   0.31742   0.00000  Uiso   1.00
H473   H     0.54699   0.87664   0.61807   0.00000  Uiso   1.00
H474   H     0.63720   0.87064   0.52921   0.00000  Uiso   1.00
H475   H     0.57004   0.90823   0.52500   0.00000  Uiso   1.00
H476   H     0.54727   0.87845   0.86987   0.00000  Uiso   1.00
H477   H     0.64455   0.88899   0.76866   0.00000  Uiso   1.00
H478   H     0.57819   0.91553   0.77789   0.00000  Uiso   1.00
H479   H     0.72411   0.87295   0.81600   0.00000  Uiso   1.00
H480   H     0.72817   0.87740   0.56481   0.00000  Uiso   1.00
H481   H     0.95100   0.11585   0.24306   0.00000  Uiso   1.00
H482   H     0.86657   0.11892   0.15399   0.00000  Uiso   1.00
H483   H     0.93240   0.09206   0.15420   0.00000  Uiso   1.00
H484   H     0.86174   0.11420   0.39739   0.00000  Uiso   1.00
H485   H     0.92342   0.08130   0.40030   0.00000  Uiso   1.00
H486   H     0.77505   0.12395   0.19168   0.00000  Uiso   1.00
H487   H     0.77347   0.12315   0.43924   0.00000  Uiso   1.00
H488   H     0.77100   0.11966   0.94109   0.00000  Uiso   1.00
H489   H     0.94701   0.11380   0.74226   0.00000  Uiso   1.00
H490   H     0.86006   0.10828   0.64940   0.00000  Uiso   1.00
H491   H     0.92885   0.08189   0.65386   0.00000  Uiso   1.00
H492   H     0.76486   0.11977   0.69553   0.00000  Uiso   1.00
H493   H     0.85162   0.10094   0.89775   0.00000  Uiso   1.00
H494   H     0.92088   0.07498   0.90411   0.00000  Uiso   1.00
H495   H     0.94448   0.11092   0.98692   0.00000  Uiso   1.00
H496   H     0.95554   0.12177   0.50453   0.00000  Uiso   1.00
H497   H     0.84213   0.22859   0.01424   0.00000  Uiso   1.00
H498   H     0.98153   0.28903   0.06842   0.00000  Uiso   1.00
H499   H     0.80324   0.27809   0.11599   0.00000  Uiso   1.00
H500   H     0.89646   0.27516   0.27129   0.00000  Uiso   1.00
H501   H     0.83342   0.24359   0.27533   0.00000  Uiso   1.00
H502   H     0.79803   0.28732   0.37452   0.00000  Uiso   1.00
H503   H     0.90670   0.25895   0.00835   0.00000  Uiso   1.00
H504   H     0.98850   0.29107   0.31455   0.00000  Uiso   1.00
H505   H     0.82889   0.24947   0.52820   0.00000  Uiso   1.00
H506   H     0.80034   0.28361   0.61738   0.00000  Uiso   1.00
H507   H     0.88921   0.28496   0.77646   0.00000  Uiso   1.00
H508   H     0.83117   0.24482   0.77601   0.00000  Uiso   1.00
H509   H     0.79836   0.29224   0.88231   0.00000  Uiso   1.00
H510   H     0.97403   0.29223   0.81579   0.00000  Uiso   1.00
H511   H     0.97160   0.29453   0.56274   0.00000  Uiso   1.00
H512   H     0.89794   0.27752   0.51994   0.00000  Uiso   1.00
H513   H     0.78215   0.46783   0.44385   0.00000  Uiso   1.00
H514   H     0.77201   0.45883   0.19519   0.00000  Uiso   1.00
H515   H     0.94439   0.44948   0.24188   0.00000  Uiso   1.00
H516   H     0.84923   0.43495   0.13419   0.00000  Uiso   1.00
H517   H     0.82569   0.58671   0.02921   0.00000  Uiso   1.00
H518   H     0.85980   0.44750   0.39566   0.00000  Uiso   1.00
H519   H     0.82963   0.58079   0.27571   0.00000  Uiso   1.00
H520   H     0.91756   0.41359   0.39633   0.00000  Uiso   1.00
H521   H     0.95003   0.45766   0.49482   0.00000  Uiso   1.00
H522   H     0.91696   0.41018   0.14405   0.00000  Uiso   1.00
H523   H     0.94330   0.44527   0.73931   0.00000  Uiso   1.00
H524   H     0.82355   0.58363   0.52938   0.00000  Uiso   1.00
H525   H     0.85792   0.44566   0.64963   0.00000  Uiso   1.00
H526   H     0.82456   0.58268   0.77995   0.00000  Uiso   1.00
H527   H     0.76788   0.45737   0.68917   0.00000  Uiso   1.00
H528   H     0.85845   0.45168   0.90041   0.00000  Uiso   1.00
H529   H     0.77573   0.45848   0.93981   0.00000  Uiso   1.00
H530   H     0.92096   0.41418   0.65261   0.00000  Uiso   1.00
H531   H     0.92151   0.41525   0.90180   0.00000  Uiso   1.00
H532   H     0.94711   0.45523   0.98990   0.00000  Uiso   1.00
H533   H     0.80119   0.62163   0.11886   0.00000  Uiso   1.00
H534   H     0.92295   0.74892   0.15324   0.00000  Uiso   1.00
H535   H     0.89261   0.61694   0.27322   0.00000  Uiso   1.00
H536   H     0.86364   0.78304   0.15681   0.00000  Uiso   1.00
H537   H     0.92685   0.75184   0.40570   0.00000  Uiso   1.00
H538   H     0.97878   0.62356   0.07295   0.00000  Uiso   1.00
H539   H     0.86193   0.78099   0.40202   0.00000  Uiso   1.00
H540   H     0.79855   0.62021   0.36710   0.00000  Uiso   1.00
H541   H     0.95183   0.78650   0.24574   0.00000  Uiso   1.00
H542   H     0.96341   0.63390   0.32215   0.00000  Uiso   1.00
H543   H     0.77523   0.79122   0.19500   0.00000  Uiso   1.00
H544   H     0.88632   0.62138   0.03026   0.00000  Uiso   1.00
H545   H     0.77792   0.79274   0.43989   0.00000  Uiso   1.00
H546   H     0.94534   0.77854   0.49310   0.00000  Uiso   1.00
H547   H     0.76470   0.78620   0.94390   0.00000  Uiso   1.00
H548   H     0.88846   0.61629   0.52873   0.00000  Uiso   1.00
H549   H     0.97812   0.62145   0.56976   0.00000  Uiso   1.00
H550   H     0.98888   0.62280   0.82094   0.00000  Uiso   1.00
H551   H     0.91910   0.74674   0.65467   0.00000  Uiso   1.00
H552   H     0.92689   0.74594   0.90529   0.00000  Uiso   1.00
H553   H     0.80200   0.62414   0.86812   0.00000  Uiso   1.00
H554   H     0.85506   0.78049   0.64729   0.00000  Uiso   1.00
H555   H     0.86089   0.77680   0.90140   0.00000  Uiso   1.00
H556   H     0.77425   0.78831   0.69262   0.00000  Uiso   1.00
H557   H     0.79707   0.62662   0.62548   0.00000  Uiso   1.00
H558   H     0.88599   0.61755   0.78219   0.00000  Uiso   1.00
H559   H     0.95318   0.78429   0.74899   0.00000  Uiso   1.00
H560   H     0.94675   0.78116   0.99355   0.00000  Uiso   1.00
H561   H     0.97435   0.95605   0.07244   0.00000  Uiso   1.00
H562   H     0.82559   0.92047   0.02923   0.00000  Uiso   1.00
H563   H     0.79816   0.95695   0.12036   0.00000  Uiso   1.00
H564   H     0.88667   0.95532   0.27738   0.00000  Uiso   1.00
H565   H     0.82853   0.91498   0.27695   0.00000  Uiso   1.00
H566   H     0.79575   0.95573   0.37688   0.00000  Uiso   1.00
H567   H     0.97054   0.95741   0.31825   0.00000  Uiso   1.00
H568   H     0.88909   0.94534   0.02583   0.00000  Uiso   1.00
H569   H     0.97786   0.95345   0.81621   0.00000  Uiso   1.00
H570   H     0.88995   0.93818   0.51853   0.00000  Uiso   1.00
H571   H     0.82513   0.91533   0.52661   0.00000  Uiso   1.00
H572   H     0.79725   0.95046   0.61846   0.00000  Uiso   1.00
H573   H     0.89186   0.92643   0.76372   0.00000  Uiso   1.00
H574   H     0.83084   0.90215   0.76800   0.00000  Uiso   1.00
H575   H     0.80439   0.94431   0.86997   0.00000  Uiso   1.00
H576   H     0.97060   0.95452   0.57136   0.00000  Uiso   1.00
C577   C     0.17791   0.18362   0.43986   0.00000  Uiso   1.00
C578   C     0.17784   0.19135   0.19060   0.00000  Uiso   1.00
C579   C     0.12581   0.05077   0.11704   0.00000  Uiso   1.00
C580   C     0.16293   0.07105   0.11883   0.00000  Uiso   1.00
C581   C     0.14252   0.02504   0.03079   0.00000  Uiso   1.00
C582   C     0.17830   0.04597   0.03106   0.00000  Uiso   1.00
C583   C     0.07154   0.01821   0.06966   0.00000  Uiso   1.00
C584   C     0.11470   0.02944   0.07366   0.00000  Uiso   1.00
C585   C     0.21799   0.10289   0.06761   0.00000  Uiso   1.00
C586   C     0.18716   0.07293   0.07145   0.00000  Uiso   1.00
C587   C     0.12856   0.05021   0.36411   0.00000  Uiso   1.00
C588   C     0.16537   0.06668   0.36400   0.00000  Uiso   1.00
C589   C     0.14120   0.02440   0.27616   0.00000  Uiso   1.00
C590   C     0.17550   0.04636   0.27401   0.00000  Uiso   1.00
C591   C     0.07137   0.01529   0.31906   0.00000  Uiso   1.00
C592   C     0.11411   0.03008   0.32031   0.00000  Uiso   1.00
C593   C     0.21908   0.09965   0.31119   0.00000  Uiso   1.00
C594   C     0.18793   0.06890   0.31740   0.00000  Uiso   1.00
C595   C     0.11077   0.19811   0.39897   0.00000  Uiso   1.00
C596   C     0.10657   0.19574   0.15091   0.00000  Uiso   1.00
C597   C     0.13752   0.19837   0.44260   0.00000  Uiso   1.00
C598   C     0.17947   0.18373   0.69212   0.00000  Uiso   1.00
C599   C     0.17705   0.18311   0.93899   0.00000  Uiso   1.00
C600   C     0.12279   0.05570   0.61063   0.00000  Uiso   1.00
C601   C     0.15930   0.07307   0.61537   0.00000  Uiso   1.00
C602   C     0.14304   0.02356   0.53019   0.00000  Uiso   1.00
C603   C     0.17861   0.04561   0.53026   0.00000  Uiso   1.00
C604   C     0.07023   0.01564   0.56834   0.00000  Uiso   1.00
C605   C     0.11381   0.03077   0.57116   0.00000  Uiso   1.00
C606   C     0.21771   0.10030   0.56852   0.00000  Uiso   1.00
C607   C     0.18581   0.07068   0.57351   0.00000  Uiso   1.00
C608   C     0.13171   0.04386   0.86496   0.00000  Uiso   1.00
C609   C     0.16700   0.06449   0.86489   0.00000  Uiso   1.00
C610   C     0.14388   0.02661   0.77382   0.00000  Uiso   1.00
C611   C     0.17956   0.04757   0.77347   0.00000  Uiso   1.00
C612   C     0.07323   0.01510   0.81940   0.00000  Uiso   1.00
C613   C     0.11707   0.02742   0.81884   0.00000  Uiso   1.00
C614   C     0.21657   0.10128   0.81522   0.00000  Uiso   1.00
C615   C     0.18883   0.07001   0.81702   0.00000  Uiso   1.00
C616   C     0.13389   0.19721   0.94363   0.00000  Uiso   1.00
C617   C     0.13600   0.19986   0.69239   0.00000  Uiso   1.00
C618   C     0.10715   0.19576   0.65286   0.00000  Uiso   1.00
C619   C     0.10480   0.19493   0.90082   0.00000  Uiso   1.00
C620   C     0.18068   0.38335   0.02573   0.00000  Uiso   1.00
C621   C     0.12564   0.21810   0.48798   0.00000  Uiso   1.00
C622   C     0.07218   0.21790   0.14850   0.00000  Uiso   1.00
C623   C     0.14473   0.36271   0.27475   0.00000  Uiso   1.00
C624   C     0.03271   0.27130   0.19051   0.00000  Uiso   1.00
C625   C     0.06016   0.23835   0.19428   0.00000  Uiso   1.00
C626   C     0.11939   0.21904   0.23775   0.00000  Uiso   1.00
C627   C     0.08299   0.23754   0.24024   0.00000  Uiso   1.00
C628   C     0.07421   0.35555   0.06395   0.00000  Uiso   1.00
C629   C     0.11573   0.37042   0.06684   0.00000  Uiso   1.00
C630   C     0.13062   0.38348   0.36291   0.00000  Uiso   1.00
C631   C     0.07400   0.21883   0.40000   0.00000  Uiso   1.00
C632   C     0.14306   0.36620   0.02510   0.00000  Uiso   1.00
C633   C     0.12967   0.38712   0.11277   0.00000  Uiso   1.00
C634   C     0.03583   0.27332   0.44013   0.00000  Uiso   1.00
C635   C     0.06536   0.24253   0.44195   0.00000  Uiso   1.00
C636   C     0.18217   0.38109   0.27719   0.00000  Uiso   1.00
C637   C     0.07315   0.35578   0.31516   0.00000  Uiso   1.00
C638   C     0.11734   0.36644   0.31737   0.00000  Uiso   1.00
C639   C     0.08918   0.23953   0.48977   0.00000  Uiso   1.00
C640   C     0.13351   0.20194   0.19236   0.00000  Uiso   1.00
C641   C     0.08377   0.23213   0.99085   0.00000  Uiso   1.00
C642   C     0.18045   0.38356   0.77657   0.00000  Uiso   1.00
C643   C     0.12697   0.39061   0.86276   0.00000  Uiso   1.00
C644   C     0.12621   0.22229   0.73531   0.00000  Uiso   1.00
C645   C     0.07160   0.21567   0.65110   0.00000  Uiso   1.00
C646   C     0.14199   0.36429   0.77748   0.00000  Uiso   1.00
C647   C     0.12502   0.38895   0.61148   0.00000  Uiso   1.00
C648   C     0.03362   0.27209   0.69141   0.00000  Uiso   1.00
C649   C     0.06471   0.24245   0.69331   0.00000  Uiso   1.00
C650   C     0.09237   0.24327   0.73599   0.00000  Uiso   1.00
C651   C     0.07231   0.35493   0.56439   0.00000  Uiso   1.00
C652   C     0.11339   0.36976   0.56650   0.00000  Uiso   1.00
C653   C     0.07033   0.21664   0.89789   0.00000  Uiso   1.00
C654   C     0.14067   0.36695   0.52429   0.00000  Uiso   1.00
C655   C     0.03190   0.27123   0.94279   0.00000  Uiso   1.00
C656   C     0.06004   0.23862   0.94362   0.00000  Uiso   1.00
C657   C     0.17738   0.38651   0.52270   0.00000  Uiso   1.00
C658   C     0.07218   0.35581   0.81458   0.00000  Uiso   1.00
C659   C     0.11324   0.37062   0.81833   0.00000  Uiso   1.00
C660   C     0.12027   0.21417   0.98883   0.00000  Uiso   1.00
C661   C     0.08385   0.56822   0.49255   0.00000  Uiso   1.00
C662   C     0.16629   0.40679   0.11273   0.00000  Uiso   1.00
C663   C     0.10574   0.52984   0.15955   0.00000  Uiso   1.00
C664   C     0.06867   0.54943   0.16320   0.00000  Uiso   1.00
C665   C     0.17934   0.52408   0.19255   0.00000  Uiso   1.00
C666   C     0.13664   0.53723   0.19715   0.00000  Uiso   1.00
C667   C     0.06268   0.57491   0.20279   0.00000  Uiso   1.00
C668   C     0.12785   0.55966   0.24036   0.00000  Uiso   1.00
C669   C     0.09071   0.57856   0.24417   0.00000  Uiso   1.00
C670   C     0.22137   0.43543   0.06652   0.00000  Uiso   1.00
C671   C     0.21965   0.43517   0.31576   0.00000  Uiso   1.00
C672   C     0.10646   0.53177   0.40017   0.00000  Uiso   1.00
C673   C     0.07077   0.55370   0.40181   0.00000  Uiso   1.00
C674   C     0.17768   0.51942   0.43774   0.00000  Uiso   1.00
C675   C     0.13643   0.53486   0.44153   0.00000  Uiso   1.00
C676   C     0.05949   0.57203   0.44823   0.00000  Uiso   1.00
C677   C     0.12516   0.55634   0.48834   0.00000  Uiso   1.00
C678   C     0.19220   0.40506   0.06908   0.00000  Uiso   1.00
C679   C     0.16701   0.40054   0.36463   0.00000  Uiso   1.00
C680   C     0.18986   0.40359   0.32065   0.00000  Uiso   1.00
C681   C     0.08600   0.57014   0.99293   0.00000  Uiso   1.00
C682   C     0.12381   0.55267   0.98762   0.00000  Uiso   1.00
C683   C     0.16281   0.40853   0.86357   0.00000  Uiso   1.00
C684   C     0.10542   0.52929   0.65209   0.00000  Uiso   1.00
C685   C     0.06772   0.54743   0.65711   0.00000  Uiso   1.00
C686   C     0.21991   0.43723   0.81666   0.00000  Uiso   1.00
C687   C     0.17600   0.52192   0.68966   0.00000  Uiso   1.00
C688   C     0.13549   0.53790   0.68987   0.00000  Uiso   1.00
C689   C     0.05961   0.57161   0.69888   0.00000  Uiso   1.00
C690   C     0.12400   0.55466   0.73715   0.00000  Uiso   1.00
C691   C     0.08571   0.56984   0.74325   0.00000  Uiso   1.00
C692   C     0.22020   0.43677   0.56472   0.00000  Uiso   1.00
C693   C     0.10564   0.52854   0.89956   0.00000  Uiso   1.00
C694   C     0.06720   0.54911   0.90393   0.00000  Uiso   1.00
C695   C     0.17621   0.51734   0.93658   0.00000  Uiso   1.00
C696   C     0.13474   0.53363   0.93899   0.00000  Uiso   1.00
C697   C     0.05953   0.57269   0.94933   0.00000  Uiso   1.00
C698   C     0.18780   0.40872   0.81797   0.00000  Uiso   1.00
C699   C     0.18855   0.40824   0.56737   0.00000  Uiso   1.00
C700   C     0.16365   0.40647   0.61280   0.00000  Uiso   1.00
C701   C     0.12857   0.71849   0.11879   0.00000  Uiso   1.00
C702   C     0.16601   0.73640   0.12035   0.00000  Uiso   1.00
C703   C     0.14506   0.69308   0.03123   0.00000  Uiso   1.00
C704   C     0.18163   0.71455   0.03238   0.00000  Uiso   1.00
C705   C     0.07574   0.68384   0.07099   0.00000  Uiso   1.00
C706   C     0.11695   0.69957   0.07231   0.00000  Uiso   1.00
C707   C     0.21834   0.76954   0.07066   0.00000  Uiso   1.00
C708   C     0.19057   0.73826   0.07584   0.00000  Uiso   1.00
C709   C     0.12546   0.72432   0.37137   0.00000  Uiso   1.00
C710   C     0.16376   0.74331   0.37195   0.00000  Uiso   1.00
C711   C     0.14025   0.70025   0.28213   0.00000  Uiso   1.00
C712   C     0.17708   0.72187   0.28356   0.00000  Uiso   1.00
C713   C     0.07104   0.68880   0.32141   0.00000  Uiso   1.00
C714   C     0.11345   0.70352   0.32562   0.00000  Uiso   1.00
C715   C     0.21825   0.77431   0.31994   0.00000  Uiso   1.00
C716   C     0.18870   0.74325   0.32591   0.00000  Uiso   1.00
C717   C     0.03179   0.60388   0.20040   0.00000  Uiso   1.00
C718   C     0.02952   0.60374   0.44622   0.00000  Uiso   1.00
C719   C     0.02754   0.60104   0.69608   0.00000  Uiso   1.00
C720   C     0.12712   0.72159   0.61804   0.00000  Uiso   1.00
C721   C     0.16470   0.74115   0.61751   0.00000  Uiso   1.00
C722   C     0.14360   0.69488   0.53264   0.00000  Uiso   1.00
C723   C     0.17794   0.71814   0.52992   0.00000  Uiso   1.00
C724   C     0.07283   0.68636   0.57280   0.00000  Uiso   1.00
C725   C     0.11463   0.70047   0.57365   0.00000  Uiso   1.00
C726   C     0.22081   0.77163   0.57070   0.00000  Uiso   1.00
C727   C     0.18914   0.74149   0.57252   0.00000  Uiso   1.00
C728   C     0.13177   0.71198   0.86838   0.00000  Uiso   1.00
C729   C     0.16858   0.73178   0.86590   0.00000  Uiso   1.00
C730   C     0.14484   0.69374   0.77776   0.00000  Uiso   1.00
C731   C     0.17807   0.71656   0.77449   0.00000  Uiso   1.00
C732   C     0.07421   0.68024   0.81974   0.00000  Uiso   1.00
C733   C     0.11710   0.69594   0.82210   0.00000  Uiso   1.00
C734   C     0.21891   0.76873   0.81776   0.00000  Uiso   1.00
C735   C     0.19056   0.73714   0.81865   0.00000  Uiso   1.00
C736   C     0.02982   0.60318   0.94700   0.00000  Uiso   1.00
C737   C     0.10322   0.85741   0.15934   0.00000  Uiso   1.00
C738   C     0.06799   0.87819   0.15818   0.00000  Uiso   1.00
C739   C     0.17534   0.85107   0.19723   0.00000  Uiso   1.00
C740   C     0.13159   0.86195   0.20082   0.00000  Uiso   1.00
C741   C     0.02651   0.93297   0.19472   0.00000  Uiso   1.00
C742   C     0.05912   0.90493   0.19858   0.00000  Uiso   1.00
C743   C     0.12028   0.88583   0.24176   0.00000  Uiso   1.00
C744   C     0.08260   0.90328   0.24569   0.00000  Uiso   1.00
C745   C     0.10493   0.85776   0.40477   0.00000  Uiso   1.00
C746   C     0.06832   0.87885   0.40277   0.00000  Uiso   1.00
C747   C     0.17657   0.85309   0.44752   0.00000  Uiso   1.00
C748   C     0.13253   0.86304   0.44762   0.00000  Uiso   1.00
C749   C     0.02512   0.93083   0.44275   0.00000  Uiso   1.00
C750   C     0.05949   0.90217   0.44399   0.00000  Uiso   1.00
C751   C     0.08356   0.90274   0.48902   0.00000  Uiso   1.00
C752   C     0.11959   0.88412   0.49037   0.00000  Uiso   1.00
C753   C     0.11969   0.87933   0.99179   0.00000  Uiso   1.00
C754   C     0.10890   0.86492   0.65369   0.00000  Uiso   1.00
C755   C     0.06961   0.88133   0.65426   0.00000  Uiso   1.00
C756   C     0.17998   0.85664   0.69522   0.00000  Uiso   1.00
C757   C     0.13712   0.86973   0.69552   0.00000  Uiso   1.00
C758   C     0.03020   0.93163   0.69441   0.00000  Uiso   1.00
C759   C     0.05919   0.90105   0.70061   0.00000  Uiso   1.00
C760   C     0.12344   0.88678   0.74266   0.00000  Uiso   1.00
C761   C     0.08384   0.89954   0.74559   0.00000  Uiso   1.00
C762   C     0.10422   0.85852   0.90140   0.00000  Uiso   1.00
C763   C     0.06753   0.87949   0.90432   0.00000  Uiso   1.00
C764   C     0.17460   0.84923   0.94363   0.00000  Uiso   1.00
C765   C     0.13211   0.86160   0.94470   0.00000  Uiso   1.00
C766   C     0.02930   0.93268   0.94798   0.00000  Uiso   1.00
C767   C     0.05848   0.90030   0.95037   0.00000  Uiso   1.00
C768   C     0.08426   0.89929   0.99427   0.00000  Uiso   1.00
C769   C     0.39431   0.13821   0.02798   0.00000  Uiso   1.00
C770   C     0.43013   0.11564   0.02703   0.00000  Uiso   1.00
C771   C     0.32238   0.14523   0.06269   0.00000  Uiso   1.00
C772   C     0.36424   0.13253   0.06755   0.00000  Uiso   1.00
C773   C     0.46970   0.06218   0.07024   0.00000  Uiso   1.00
C774   C     0.43807   0.09251   0.06972   0.00000  Uiso   1.00
C775   C     0.37550   0.11397   0.11332   0.00000  Uiso   1.00
C776   C     0.41326   0.09515   0.11567   0.00000  Uiso   1.00
C777   C     0.39612   0.14149   0.28352   0.00000  Uiso   1.00
C778   C     0.43030   0.11912   0.28368   0.00000  Uiso   1.00
C779   C     0.32475   0.14828   0.31760   0.00000  Uiso   1.00
C780   C     0.36585   0.13738   0.32306   0.00000  Uiso   1.00
C781   C     0.46852   0.06120   0.31937   0.00000  Uiso   1.00
C782   C     0.43857   0.09409   0.32549   0.00000  Uiso   1.00
C783   C     0.37477   0.11239   0.36454   0.00000  Uiso   1.00
C784   C     0.41274   0.09255   0.36880   0.00000  Uiso   1.00
C785   C     0.39624   0.13733   0.52270   0.00000  Uiso   1.00
C786   C     0.43557   0.12128   0.52593   0.00000  Uiso   1.00
C787   C     0.32556   0.14550   0.56258   0.00000  Uiso   1.00
C788   C     0.36817   0.13245   0.56401   0.00000  Uiso   1.00
C789   C     0.47624   0.06621   0.56935   0.00000  Uiso   1.00
C790   C     0.44484   0.09805   0.56993   0.00000  Uiso   1.00
C791   C     0.38020   0.11715   0.60993   0.00000  Uiso   1.00
C792   C     0.41696   0.09869   0.61274   0.00000  Uiso   1.00
C793   C     0.39675   0.13682   0.78007   0.00000  Uiso   1.00
C794   C     0.43418   0.11755   0.78390   0.00000  Uiso   1.00
C795   C     0.32368   0.14419   0.81960   0.00000  Uiso   1.00
C796   C     0.36727   0.13072   0.82120   0.00000  Uiso   1.00
C797   C     0.47177   0.06364   0.81991   0.00000  Uiso   1.00
C798   C     0.44149   0.09372   0.82538   0.00000  Uiso   1.00
C799   C     0.37886   0.11118   0.86616   0.00000  Uiso   1.00
C800   C     0.41522   0.09391   0.86961   0.00000  Uiso   1.00
C801   C     0.33303   0.26197   0.49057   0.00000  Uiso   1.00
C802   C     0.37586   0.28022   0.23440   0.00000  Uiso   1.00
C803   C     0.33954   0.26110   0.23334   0.00000  Uiso   1.00
C804   C     0.36166   0.30379   0.14816   0.00000  Uiso   1.00
C805   C     0.32621   0.28156   0.14477   0.00000  Uiso   1.00
C806   C     0.43073   0.31681   0.19348   0.00000  Uiso   1.00
C807   C     0.38612   0.30348   0.19458   0.00000  Uiso   1.00
C808   C     0.28006   0.23096   0.18872   0.00000  Uiso   1.00
C809   C     0.31348   0.26149   0.19072   0.00000  Uiso   1.00
C810   C     0.37066   0.27975   0.48851   0.00000  Uiso   1.00
C811   C     0.35334   0.30538   0.40360   0.00000  Uiso   1.00
C812   C     0.31643   0.28331   0.40040   0.00000  Uiso   1.00
C813   C     0.42550   0.31650   0.44423   0.00000  Uiso   1.00
C814   C     0.38236   0.30301   0.44559   0.00000  Uiso   1.00
C815   C     0.27811   0.22980   0.44208   0.00000  Uiso   1.00
C816   C     0.30788   0.26098   0.44555   0.00000  Uiso   1.00
C817   C     0.47396   0.39552   0.32020   0.00000  Uiso   1.00
C818   C     0.46816   0.39866   0.07098   0.00000  Uiso   1.00
C819   C     0.33970   0.25886   0.99034   0.00000  Uiso   1.00
C820   C     0.37335   0.28121   0.74448   0.00000  Uiso   1.00
C821   C     0.33644   0.26212   0.74570   0.00000  Uiso   1.00
C822   C     0.36174   0.29920   0.65309   0.00000  Uiso   1.00
C823   C     0.32480   0.27914   0.65266   0.00000  Uiso   1.00
C824   C     0.42844   0.31538   0.69819   0.00000  Uiso   1.00
C825   C     0.38674   0.29805   0.69834   0.00000  Uiso   1.00
C826   C     0.28354   0.22644   0.69416   0.00000  Uiso   1.00
C827   C     0.31358   0.25833   0.69687   0.00000  Uiso   1.00
C828   C     0.37597   0.27743   0.99012   0.00000  Uiso   1.00
C829   C     0.35844   0.30435   0.90510   0.00000  Uiso   1.00
C830   C     0.32321   0.28235   0.90483   0.00000  Uiso   1.00
C831   C     0.42944   0.31121   0.94534   0.00000  Uiso   1.00
C832   C     0.38814   0.29870   0.94479   0.00000  Uiso   1.00
C833   C     0.28422   0.22670   0.94001   0.00000  Uiso   1.00
C834   C     0.31465   0.25740   0.94535   0.00000  Uiso   1.00
C835   C     0.47261   0.39773   0.81865   0.00000  Uiso   1.00
C836   C     0.47316   0.39734   0.57104   0.00000  Uiso   1.00
C837   C     0.31303   0.59479   0.43993   0.00000  Uiso   1.00
C838   C     0.37977   0.44256   0.36014   0.00000  Uiso   1.00
C839   C     0.28350   0.56408   0.43658   0.00000  Uiso   1.00
C840   C     0.44258   0.42526   0.32099   0.00000  Uiso   1.00
C841   C     0.33819   0.59445   0.48496   0.00000  Uiso   1.00
C842   C     0.39462   0.47391   0.02873   0.00000  Uiso   1.00
C843   C     0.41518   0.42440   0.36112   0.00000  Uiso   1.00
C844   C     0.43036   0.45435   0.03163   0.00000  Uiso   1.00
C845   C     0.32461   0.48637   0.06762   0.00000  Uiso   1.00
C846   C     0.36701   0.47328   0.06862   0.00000  Uiso   1.00
C847   C     0.43922   0.43266   0.07426   0.00000  Uiso   1.00
C848   C     0.37746   0.45544   0.11768   0.00000  Uiso   1.00
C849   C     0.41220   0.43316   0.11928   0.00000  Uiso   1.00
C850   C     0.28154   0.56534   0.19191   0.00000  Uiso   1.00
C851   C     0.39684   0.46907   0.27497   0.00000  Uiso   1.00
C852   C     0.43322   0.44869   0.27853   0.00000  Uiso   1.00
C853   C     0.32655   0.47973   0.31366   0.00000  Uiso   1.00
C854   C     0.36803   0.46552   0.31658   0.00000  Uiso   1.00
C855   C     0.30862   0.59797   0.19588   0.00000  Uiso   1.00
C856   C     0.33568   0.59771   0.23924   0.00000  Uiso   1.00
C857   C     0.32737   0.59848   0.99057   0.00000  Uiso   1.00
C858   C     0.44067   0.42771   0.81999   0.00000  Uiso   1.00
C859   C     0.27574   0.56627   0.93960   0.00000  Uiso   1.00
C860   C     0.37617   0.44582   0.85870   0.00000  Uiso   1.00
C861   C     0.39591   0.47016   0.52608   0.00000  Uiso   1.00
C862   C     0.43129   0.44736   0.52770   0.00000  Uiso   1.00
C863   C     0.41324   0.42617   0.86206   0.00000  Uiso   1.00
C864   C     0.32394   0.48204   0.56488   0.00000  Uiso   1.00
C865   C     0.36831   0.46899   0.56812   0.00000  Uiso   1.00
C866   C     0.44576   0.43018   0.57353   0.00000  Uiso   1.00
C867   C     0.38123   0.45051   0.61220   0.00000  Uiso   1.00
C868   C     0.41917   0.43248   0.61698   0.00000  Uiso   1.00
C869   C     0.27849   0.56596   0.69078   0.00000  Uiso   1.00
C870   C     0.39439   0.47080   0.77329   0.00000  Uiso   1.00
C871   C     0.42905   0.44927   0.77451   0.00000  Uiso   1.00
C872   C     0.32340   0.48049   0.81143   0.00000  Uiso   1.00
C873   C     0.36495   0.46625   0.81330   0.00000  Uiso   1.00
C874   C     0.30234   0.59835   0.94329   0.00000  Uiso   1.00
C875   C     0.30981   0.59633   0.69143   0.00000  Uiso   1.00
C876   C     0.32363   0.62009   0.39702   0.00000  Uiso   1.00
C877   C     0.37295   0.61498   0.48655   0.00000  Uiso   1.00
C878   C     0.42306   0.65322   0.19119   0.00000  Uiso   1.00
C879   C     0.37967   0.63977   0.19561   0.00000  Uiso   1.00
C880   C     0.37199   0.61471   0.23734   0.00000  Uiso   1.00
C881   C     0.42858   0.78640   0.02249   0.00000  Uiso   1.00
C882   C     0.35795   0.64190   0.39769   0.00000  Uiso   1.00
C883   C     0.46975   0.73555   0.06629   0.00000  Uiso   1.00
C884   C     0.43959   0.76457   0.06791   0.00000  Uiso   1.00
C885   C     0.38048   0.78817   0.11112   0.00000  Uiso   1.00
C886   C     0.41824   0.77070   0.11375   0.00000  Uiso   1.00
C887   C     0.42561   0.65233   0.43986   0.00000  Uiso   1.00
C888   C     0.38392   0.63864   0.44258   0.00000  Uiso   1.00
C889   C     0.31476   0.62289   0.15489   0.00000  Uiso   1.00
C890   C     0.42903   0.78886   0.27501   0.00000  Uiso   1.00
C891   C     0.34940   0.64563   0.15716   0.00000  Uiso   1.00
C892   C     0.46750   0.73652   0.31514   0.00000  Uiso   1.00
C893   C     0.43750   0.76635   0.31787   0.00000  Uiso   1.00
C894   C     0.37561   0.78208   0.36213   0.00000  Uiso   1.00
C895   C     0.41297   0.76684   0.36175   0.00000  Uiso   1.00
C896   C     0.31984   0.61710   0.64748   0.00000  Uiso   1.00
C897   C     0.31346   0.62092   0.90160   0.00000  Uiso   1.00
C898   C     0.37884   0.78101   0.86811   0.00000  Uiso   1.00
C899   C     0.42606   0.64907   0.69027   0.00000  Uiso   1.00
C900   C     0.38219   0.63756   0.69056   0.00000  Uiso   1.00
C901   C     0.43175   0.78599   0.52637   0.00000  Uiso   1.00
C902   C     0.35064   0.64037   0.90207   0.00000  Uiso   1.00
C903   C     0.36834   0.62081   0.73695   0.00000  Uiso   1.00
C904   C     0.47228   0.73321   0.56803   0.00000  Uiso   1.00
C905   C     0.44303   0.76515   0.57030   0.00000  Uiso   1.00
C906   C     0.42207   0.77184   0.61712   0.00000  Uiso   1.00
C907   C     0.42295   0.64699   0.94187   0.00000  Uiso   1.00
C908   C     0.37869   0.63560   0.94460   0.00000  Uiso   1.00
C909   C     0.43241   0.78507   0.78413   0.00000  Uiso   1.00
C910   C     0.35559   0.63973   0.64749   0.00000  Uiso   1.00
C911   C     0.47032   0.72979   0.81994   0.00000  Uiso   1.00
C912   C     0.43949   0.76030   0.82494   0.00000  Uiso   1.00
C913   C     0.41305   0.75941   0.86772   0.00000  Uiso   1.00
C914   C     0.38353   0.78847   0.61678   0.00000  Uiso   1.00
C915   C     0.36618   0.61469   0.98981   0.00000  Uiso   1.00
C916   C     0.33106   0.60297   0.73784   0.00000  Uiso   1.00
C917   C     0.32067   0.81637   0.31698   0.00000  Uiso   1.00
C918   C     0.36291   0.80219   0.31665   0.00000  Uiso   1.00
C919   C     0.32391   0.82034   0.06686   0.00000  Uiso   1.00
C920   C     0.37325   0.94221   0.23683   0.00000  Uiso   1.00
C921   C     0.33468   0.92605   0.24140   0.00000  Uiso   1.00
C922   C     0.35589   0.97146   0.15401   0.00000  Uiso   1.00
C923   C     0.31896   0.95078   0.15271   0.00000  Uiso   1.00
C924   C     0.42584   0.97832   0.19498   0.00000  Uiso   1.00
C925   C     0.38387   0.96488   0.19698   0.00000  Uiso   1.00
C926   C     0.27769   0.89833   0.19396   0.00000  Uiso   1.00
C927   C     0.30912   0.92735   0.19615   0.00000  Uiso   1.00
C928   C     0.37365   0.94964   0.49368   0.00000  Uiso   1.00
C929   C     0.35618   0.97429   0.40812   0.00000  Uiso   1.00
C930   C     0.31846   0.95489   0.40918   0.00000  Uiso   1.00
C931   C     0.42894   0.98248   0.44507   0.00000  Uiso   1.00
C932   C     0.38577   0.97091   0.44916   0.00000  Uiso   1.00
C933   C     0.28247   0.89873   0.44588   0.00000  Uiso   1.00
C934   C     0.30984   0.93100   0.45178   0.00000  Uiso   1.00
C935   C     0.36639   0.80707   0.06733   0.00000  Uiso   1.00
C936   C     0.39506   0.81028   0.02628   0.00000  Uiso   1.00
C937   C     0.33476   0.93297   0.49523   0.00000  Uiso   1.00
C938   C     0.39040   0.80685   0.27461   0.00000  Uiso   1.00
C939   C     0.32648   0.81731   0.82125   0.00000  Uiso   1.00
C940   C     0.33431   0.93123   0.98905   0.00000  Uiso   1.00
C941   C     0.32474   0.81735   0.56929   0.00000  Uiso   1.00
C942   C     0.37476   0.94836   0.74281   0.00000  Uiso   1.00
C943   C     0.33786   0.93040   0.74471   0.00000  Uiso   1.00
C944   C     0.35889   0.97330   0.65449   0.00000  Uiso   1.00
C945   C     0.32091   0.95358   0.65785   0.00000  Uiso   1.00
C946   C     0.43019   0.98009   0.69344   0.00000  Uiso   1.00
C947   C     0.38706   0.96838   0.69837   0.00000  Uiso   1.00
C948   C     0.28326   0.89782   0.69529   0.00000  Uiso   1.00
C949   C     0.31245   0.92977   0.70097   0.00000  Uiso   1.00
C950   C     0.35473   0.97183   0.89968   0.00000  Uiso   1.00
C951   C     0.31853   0.94997   0.90078   0.00000  Uiso   1.00
C952   C     0.42415   0.98374   0.94061   0.00000  Uiso   1.00
C953   C     0.38289   0.96889   0.94280   0.00000  Uiso   1.00
C954   C     0.27918   0.89640   0.94562   0.00000  Uiso   1.00
C955   C     0.30919   0.92803   0.94565   0.00000  Uiso   1.00
C956   C     0.36908   0.95366   0.98944   0.00000  Uiso   1.00
C957   C     0.39461   0.80622   0.52615   0.00000  Uiso   1.00
C958   C     0.36772   0.80151   0.82390   0.00000  Uiso   1.00
C959   C     0.39561   0.80460   0.78101   0.00000  Uiso   1.00
C960   C     0.36925   0.80528   0.56969   0.00000  Uiso   1.00
C961   C     0.67800   0.18933   0.44215   0.00000  Uiso   1.00
C962   C     0.67870   0.18496   0.19401   0.00000  Uiso   1.00
C963   C     0.62626   0.05013   0.11678   0.00000  Uiso   1.00
C964   C     0.66479   0.06872   0.11723   0.00000  Uiso   1.00
C965   C     0.64432   0.02255   0.03303   0.00000  Uiso   1.00
C966   C     0.67997   0.04465   0.03136   0.00000  Uiso   1.00
C967   C     0.57368   0.01313   0.07090   0.00000  Uiso   1.00
C968   C     0.61465   0.02791   0.07346   0.00000  Uiso   1.00
C969   C     0.71996   0.09987   0.07108   0.00000  Uiso   1.00
C970   C     0.69068   0.06837   0.07444   0.00000  Uiso   1.00
C971   C     0.62356   0.05684   0.36103   0.00000  Uiso   1.00
C972   C     0.66063   0.07634   0.36150   0.00000  Uiso   1.00
C973   C     0.64467   0.02866   0.27831   0.00000  Uiso   1.00
C974   C     0.68000   0.05144   0.27661   0.00000  Uiso   1.00
C975   C     0.57421   0.01853   0.31734   0.00000  Uiso   1.00
C976   C     0.61508   0.03305   0.31927   0.00000  Uiso   1.00
C977   C     0.72199   0.10390   0.31837   0.00000  Uiso   1.00
C978   C     0.68844   0.07640   0.31845   0.00000  Uiso   1.00
C979   C     0.63655   0.19791   0.19603   0.00000  Uiso   1.00
C980   C     0.60814   0.19776   0.40178   0.00000  Uiso   1.00
C981   C     0.60729   0.19102   0.15555   0.00000  Uiso   1.00
C982   C     0.67787   0.18606   0.94633   0.00000  Uiso   1.00
C983   C     0.67790   0.18594   0.69552   0.00000  Uiso   1.00
C984   C     0.63194   0.04975   0.61520   0.00000  Uiso   1.00
C985   C     0.66904   0.06551   0.61774   0.00000  Uiso   1.00
C986   C     0.64362   0.03026   0.52560   0.00000  Uiso   1.00
C987   C     0.67691   0.05539   0.52361   0.00000  Uiso   1.00
C988   C     0.57713   0.01780   0.56980   0.00000  Uiso   1.00
C989   C     0.61881   0.03004   0.57082   0.00000  Uiso   1.00
C990   C     0.71697   0.10326   0.57021   0.00000  Uiso   1.00
C991   C     0.68965   0.07213   0.57119   0.00000  Uiso   1.00
C992   C     0.62958   0.04553   0.87107   0.00000  Uiso   1.00
C993   C     0.66653   0.06426   0.87395   0.00000  Uiso   1.00
C994   C     0.64127   0.02883   0.77761   0.00000  Uiso   1.00
C995   C     0.67652   0.05111   0.78019   0.00000  Uiso   1.00
C996   C     0.57416   0.01684   0.82187   0.00000  Uiso   1.00
C997   C     0.61639   0.02922   0.82406   0.00000  Uiso   1.00
C998   C     0.71678   0.10274   0.82372   0.00000  Uiso   1.00
C999   C     0.68801   0.07091   0.82758   0.00000  Uiso   1.00
C1000  C     0.60969   0.19779   0.90598   0.00000  Uiso   1.00
C1001  C     0.60734   0.19605   0.65427   0.00000  Uiso   1.00
C1002  C     0.63698   0.19880   0.94896   0.00000  Uiso   1.00
C1003  C     0.68235   0.38429   0.28262   0.00000  Uiso   1.00
C1004  C     0.58418   0.23495   0.48800   0.00000  Uiso   1.00
C1005  C     0.62150   0.21976   0.48795   0.00000  Uiso   1.00
C1006  C     0.68275   0.38410   0.02511   0.00000  Uiso   1.00
C1007  C     0.57009   0.21192   0.15481   0.00000  Uiso   1.00
C1008  C     0.64878   0.36136   0.28245   0.00000  Uiso   1.00
C1009  C     0.53047   0.26668   0.19322   0.00000  Uiso   1.00
C1010  C     0.56015   0.23543   0.19613   0.00000  Uiso   1.00
C1011  C     0.62305   0.21735   0.24216   0.00000  Uiso   1.00
C1012  C     0.58597   0.23561   0.24133   0.00000  Uiso   1.00
C1013  C     0.57543   0.35683   0.06883   0.00000  Uiso   1.00
C1014  C     0.61848   0.37103   0.06943   0.00000  Uiso   1.00
C1015  C     0.57017   0.21808   0.39826   0.00000  Uiso   1.00
C1016  C     0.64467   0.36818   0.02545   0.00000  Uiso   1.00
C1017  C     0.62677   0.38672   0.36808   0.00000  Uiso   1.00
C1018  C     0.52787   0.26546   0.44434   0.00000  Uiso   1.00
C1019  C     0.55859   0.23710   0.44345   0.00000  Uiso   1.00
C1020  C     0.57661   0.34823   0.32171   0.00000  Uiso   1.00
C1021  C     0.61812   0.36463   0.32319   0.00000  Uiso   1.00
C1022  C     0.63344   0.38475   0.11597   0.00000  Uiso   1.00
C1023  C     0.63576   0.20168   0.44327   0.00000  Uiso   1.00
C1024  C     0.68220   0.38226   0.77412   0.00000  Uiso   1.00
C1025  C     0.63150   0.38049   0.61517   0.00000  Uiso   1.00
C1026  C     0.68098   0.38267   0.52545   0.00000  Uiso   1.00
C1027  C     0.56959   0.21475   0.65531   0.00000  Uiso   1.00
C1028  C     0.64748   0.35991   0.77717   0.00000  Uiso   1.00
C1029  C     0.53057   0.26778   0.69922   0.00000  Uiso   1.00
C1030  C     0.56068   0.23629   0.70106   0.00000  Uiso   1.00
C1031  C     0.62094   0.21784   0.74153   0.00000  Uiso   1.00
C1032  C     0.58260   0.23195   0.74583   0.00000  Uiso   1.00
C1033  C     0.57727   0.34634   0.56869   0.00000  Uiso   1.00
C1034  C     0.61956   0.36000   0.57062   0.00000  Uiso   1.00
C1035  C     0.57353   0.21864   0.90796   0.00000  Uiso   1.00
C1036  C     0.64706   0.35726   0.52752   0.00000  Uiso   1.00
C1037  C     0.53448   0.27141   0.94863   0.00000  Uiso   1.00
C1038  C     0.56525   0.24251   0.94904   0.00000  Uiso   1.00
C1039  C     0.59004   0.24121   0.99441   0.00000  Uiso   1.00
C1040  C     0.57613   0.35087   0.81861   0.00000  Uiso   1.00
C1041  C     0.61926   0.36467   0.81927   0.00000  Uiso   1.00
C1042  C     0.62681   0.22114   0.99361   0.00000  Uiso   1.00
C1043  C     0.63186   0.38365   0.86339   0.00000  Uiso   1.00
C1044  C     0.67077   0.39971   0.86400   0.00000  Uiso   1.00
C1045  C     0.63534   0.20081   0.69649   0.00000  Uiso   1.00
C1046  C     0.58370   0.57574   0.48572   0.00000  Uiso   1.00
C1047  C     0.69304   0.40530   0.06925   0.00000  Uiso   1.00
C1048  C     0.62093   0.55844   0.48598   0.00000  Uiso   1.00
C1049  C     0.60481   0.52970   0.15648   0.00000  Uiso   1.00
C1050  C     0.71620   0.44011   0.31979   0.00000  Uiso   1.00
C1051  C     0.57020   0.55165   0.15340   0.00000  Uiso   1.00
C1052  C     0.67472   0.51833   0.19350   0.00000  Uiso   1.00
C1053  C     0.63379   0.53453   0.19552   0.00000  Uiso   1.00
C1054  C     0.56135   0.57787   0.19357   0.00000  Uiso   1.00
C1055  C     0.62365   0.55778   0.23758   0.00000  Uiso   1.00
C1056  C     0.58862   0.57899   0.23710   0.00000  Uiso   1.00
C1057  C     0.72475   0.43642   0.06762   0.00000  Uiso   1.00
C1058  C     0.60426   0.52844   0.40344   0.00000  Uiso   1.00
C1059  C     0.57012   0.55140   0.40010   0.00000  Uiso   1.00
C1060  C     0.67556   0.52400   0.44195   0.00000  Uiso   1.00
C1061  C     0.63276   0.53485   0.44492   0.00000  Uiso   1.00
C1062  C     0.56007   0.57483   0.43997   0.00000  Uiso   1.00
C1063  C     0.66295   0.40732   0.36886   0.00000  Uiso   1.00
C1064  C     0.67010   0.40399   0.11474   0.00000  Uiso   1.00
C1065  C     0.68847   0.40840   0.32505   0.00000  Uiso   1.00
C1066  C     0.60649   0.52971   0.65125   0.00000  Uiso   1.00
C1067  C     0.56997   0.54950   0.65201   0.00000  Uiso   1.00
C1068  C     0.62060   0.55005   0.98991   0.00000  Uiso   1.00
C1069  C     0.67690   0.52238   0.69052   0.00000  Uiso   1.00
C1070  C     0.63460   0.53598   0.69284   0.00000  Uiso   1.00
C1071  C     0.55876   0.57038   0.69583   0.00000  Uiso   1.00
C1072  C     0.58322   0.56792   0.99271   0.00000  Uiso   1.00
C1073  C     0.62210   0.55180   0.73924   0.00000  Uiso   1.00
C1074  C     0.58477   0.57089   0.73971   0.00000  Uiso   1.00
C1075  C     0.71711   0.44016   0.56694   0.00000  Uiso   1.00
C1076  C     0.72146   0.43682   0.81563   0.00000  Uiso   1.00
C1077  C     0.60192   0.52457   0.90449   0.00000  Uiso   1.00
C1078  C     0.56699   0.54613   0.90606   0.00000  Uiso   1.00
C1079  C     0.67499   0.51755   0.93997   0.00000  Uiso   1.00
C1080  C     0.63187   0.53043   0.94444   0.00000  Uiso   1.00
C1081  C     0.55769   0.56974   0.94760   0.00000  Uiso   1.00
C1082  C     0.69277   0.40454   0.81868   0.00000  Uiso   1.00
C1083  C     0.68964   0.40671   0.56952   0.00000  Uiso   1.00
C1084  C     0.66504   0.40283   0.61440   0.00000  Uiso   1.00
C1085  C     0.62902   0.71609   0.11582   0.00000  Uiso   1.00
C1086  C     0.66659   0.73283   0.11839   0.00000  Uiso   1.00
C1087  C     0.64398   0.69350   0.02845   0.00000  Uiso   1.00
C1088  C     0.67861   0.71502   0.02685   0.00000  Uiso   1.00
C1089  C     0.57288   0.68791   0.06708   0.00000  Uiso   1.00
C1090  C     0.61748   0.69598   0.07279   0.00000  Uiso   1.00
C1091  C     0.71824   0.76828   0.06890   0.00000  Uiso   1.00
C1092  C     0.69102   0.73586   0.07291   0.00000  Uiso   1.00
C1093  C     0.62309   0.72497   0.35876   0.00000  Uiso   1.00
C1094  C     0.66411   0.73926   0.36467   0.00000  Uiso   1.00
C1095  C     0.64247   0.69963   0.27518   0.00000  Uiso   1.00
C1096  C     0.68209   0.71592   0.27886   0.00000  Uiso   1.00
C1097  C     0.57282   0.68921   0.31226   0.00000  Uiso   1.00
C1098  C     0.61350   0.70412   0.31583   0.00000  Uiso   1.00
C1099  C     0.72139   0.76931   0.32042   0.00000  Uiso   1.00
C1100  C     0.69085   0.73899   0.32325   0.00000  Uiso   1.00
C1101  C     0.52755   0.60235   0.43768   0.00000  Uiso   1.00
C1102  C     0.53098   0.60743   0.18886   0.00000  Uiso   1.00
C1103  C     0.62674   0.71808   0.61269   0.00000  Uiso   1.00
C1104  C     0.66258   0.73821   0.61412   0.00000  Uiso   1.00
C1105  C     0.64473   0.69449   0.52569   0.00000  Uiso   1.00
C1106  C     0.68089   0.71496   0.52786   0.00000  Uiso   1.00
C1107  C     0.57225   0.68411   0.56483   0.00000  Uiso   1.00
C1108  C     0.61395   0.69967   0.56628   0.00000  Uiso   1.00
C1109  C     0.71931   0.76834   0.56585   0.00000  Uiso   1.00
C1110  C     0.68901   0.73816   0.57087   0.00000  Uiso   1.00
C1111  C     0.62663   0.71983   0.86258   0.00000  Uiso   1.00
C1112  C     0.66649   0.73525   0.86577   0.00000  Uiso   1.00
C1113  C     0.64252   0.69632   0.77483   0.00000  Uiso   1.00
C1114  C     0.68147   0.71309   0.77851   0.00000  Uiso   1.00
C1115  C     0.57293   0.68618   0.81654   0.00000  Uiso   1.00
C1116  C     0.61438   0.70157   0.81577   0.00000  Uiso   1.00
C1117  C     0.72365   0.76427   0.81761   0.00000  Uiso   1.00
C1118  C     0.69231   0.73613   0.82095   0.00000  Uiso   1.00
C1119  C     0.52913   0.60073   0.69148   0.00000  Uiso   1.00
C1120  C     0.53007   0.60280   0.94389   0.00000  Uiso   1.00
C1121  C     0.58170   0.89324   0.49212   0.00000  Uiso   1.00
C1122  C     0.61820   0.87293   0.49236   0.00000  Uiso   1.00
C1123  C     0.60463   0.85641   0.15769   0.00000  Uiso   1.00
C1124  C     0.57174   0.88137   0.15548   0.00000  Uiso   1.00
C1125  C     0.67671   0.84977   0.19313   0.00000  Uiso   1.00
C1126  C     0.63374   0.86139   0.19789   0.00000  Uiso   1.00
C1127  C     0.53253   0.93494   0.19445   0.00000  Uiso   1.00
C1128  C     0.56269   0.90490   0.19661   0.00000  Uiso   1.00
C1129  C     0.62381   0.88417   0.24093   0.00000  Uiso   1.00
C1130  C     0.58699   0.90379   0.24269   0.00000  Uiso   1.00
C1131  C     0.60665   0.86090   0.39949   0.00000  Uiso   1.00
C1132  C     0.57066   0.88160   0.39997   0.00000  Uiso   1.00
C1133  C     0.67595   0.84883   0.44033   0.00000  Uiso   1.00
C1134  C     0.63259   0.85843   0.44391   0.00000  Uiso   1.00
C1135  C     0.52878   0.93018   0.44283   0.00000  Uiso   1.00
C1136  C     0.55794   0.89818   0.44543   0.00000  Uiso   1.00
C1137  C     0.60584   0.85825   0.65106   0.00000  Uiso   1.00
C1138  C     0.56801   0.87839   0.65301   0.00000  Uiso   1.00
C1139  C     0.67468   0.84650   0.69523   0.00000  Uiso   1.00
C1140  C     0.63283   0.86169   0.69383   0.00000  Uiso   1.00
C1141  C     0.53127   0.93428   0.69567   0.00000  Uiso   1.00
C1142  C     0.55941   0.90178   0.69799   0.00000  Uiso   1.00
C1143  C     0.62293   0.88338   0.73990   0.00000  Uiso   1.00
C1144  C     0.58437   0.89922   0.74145   0.00000  Uiso   1.00
C1145  C     0.60514   0.85904   0.90329   0.00000  Uiso   1.00
C1146  C     0.56979   0.87943   0.90285   0.00000  Uiso   1.00
C1147  C     0.67615   0.85006   0.94242   0.00000  Uiso   1.00
C1148  C     0.63330   0.86236   0.94539   0.00000  Uiso   1.00
C1149  C     0.52627   0.93083   0.94348   0.00000  Uiso   1.00
C1150  C     0.55988   0.90257   0.94722   0.00000  Uiso   1.00
C1151  C     0.58574   0.90122   0.99264   0.00000  Uiso   1.00
C1152  C     0.62128   0.88303   0.99179   0.00000  Uiso   1.00
C1153  C     0.89287   0.13373   0.02438   0.00000  Uiso   1.00
C1154  C     0.92933   0.11221   0.02399   0.00000  Uiso   1.00
C1155  C     0.82430   0.14578   0.06770   0.00000  Uiso   1.00
C1156  C     0.86773   0.13386   0.06978   0.00000  Uiso   1.00
C1157  C     0.96823   0.06101   0.07013   0.00000  Uiso   1.00
C1158  C     0.94052   0.09307   0.07100   0.00000  Uiso   1.00
C1159  C     0.88263   0.12028   0.11821   0.00000  Uiso   1.00
C1160  C     0.92064   0.10200   0.11700   0.00000  Uiso   1.00
C1161  C     0.89426   0.13787   0.27686   0.00000  Uiso   1.00
C1162  C     0.93015   0.11566   0.27647   0.00000  Uiso   1.00
C1163  C     0.82578   0.14880   0.31908   0.00000  Uiso   1.00
C1164  C     0.86847   0.13552   0.32052   0.00000  Uiso   1.00
C1165  C     0.97102   0.06302   0.31718   0.00000  Uiso   1.00
C1166  C     0.94084   0.09393   0.31846   0.00000  Uiso   1.00
C1167  C     0.88106   0.11494   0.36470   0.00000  Uiso   1.00
C1168  C     0.91666   0.09529   0.36409   0.00000  Uiso   1.00
C1169  C     0.89462   0.13528   0.52952   0.00000  Uiso   1.00
C1170  C     0.93191   0.11721   0.53333   0.00000  Uiso   1.00
C1171  C     0.82201   0.14347   0.57037   0.00000  Uiso   1.00
C1172  C     0.86573   0.13239   0.57070   0.00000  Uiso   1.00
C1173  C     0.96830   0.06146   0.57155   0.00000  Uiso   1.00
C1174  C     0.94172   0.09439   0.57542   0.00000  Uiso   1.00
C1175  C     0.88009   0.11244   0.61616   0.00000  Uiso   1.00
C1176  C     0.91962   0.09770   0.61999   0.00000  Uiso   1.00
C1177  C     0.88943   0.13220   0.77565   0.00000  Uiso   1.00
C1178  C     0.92636   0.11180   0.77637   0.00000  Uiso   1.00
C1179  C     0.82161   0.14301   0.81839   0.00000  Uiso   1.00
C1180  C     0.86206   0.12716   0.81929   0.00000  Uiso   1.00
C1181  C     0.96923   0.06140   0.81809   0.00000  Uiso   1.00
C1182  C     0.93842   0.09221   0.82186   0.00000  Uiso   1.00
C1183  C     0.87352   0.10588   0.86459   0.00000  Uiso   1.00
C1184  C     0.91315   0.08939   0.86586   0.00000  Uiso   1.00
C1185  C     0.87706   0.28117   0.48698   0.00000  Uiso   1.00
C1186  C     0.87614   0.27842   0.23748   0.00000  Uiso   1.00
C1187  C     0.84002   0.25871   0.24013   0.00000  Uiso   1.00
C1188  C     0.86001   0.30293   0.14901   0.00000  Uiso   1.00
C1189  C     0.82436   0.28053   0.14957   0.00000  Uiso   1.00
C1190  C     0.92778   0.31503   0.18892   0.00000  Uiso   1.00
C1191  C     0.88758   0.29894   0.19110   0.00000  Uiso   1.00
C1192  C     0.78354   0.22968   0.19067   0.00000  Uiso   1.00
C1193  C     0.81372   0.25975   0.19477   0.00000  Uiso   1.00
C1194  C     0.83725   0.26658   0.49428   0.00000  Uiso   1.00
C1195  C     0.85587   0.30700   0.40372   0.00000  Uiso   1.00
C1196  C     0.81927   0.28773   0.40783   0.00000  Uiso   1.00
C1197  C     0.92837   0.31483   0.43730   0.00000  Uiso   1.00
C1198  C     0.88564   0.30173   0.44195   0.00000  Uiso   1.00
C1199  C     0.78485   0.23012   0.44627   0.00000  Uiso   1.00
C1200  C     0.81070   0.26405   0.45026   0.00000  Uiso   1.00
C1201  C     0.96829   0.39768   0.06712   0.00000  Uiso   1.00
C1202  C     0.88207   0.26832   0.98362   0.00000  Uiso   1.00
C1203  C     0.86982   0.28457   0.74246   0.00000  Uiso   1.00
C1204  C     0.83611   0.26287   0.74071   0.00000  Uiso   1.00
C1205  C     0.85577   0.30553   0.65288   0.00000  Uiso   1.00
C1206  C     0.82032   0.28365   0.65313   0.00000  Uiso   1.00
C1207  C     0.92702   0.31513   0.69156   0.00000  Uiso   1.00
C1208  C     0.88336   0.30395   0.69481   0.00000  Uiso   1.00
C1209  C     0.78453   0.22802   0.69486   0.00000  Uiso   1.00
C1210  C     0.81246   0.25944   0.69546   0.00000  Uiso   1.00
C1211  C     0.84527   0.24871   0.98555   0.00000  Uiso   1.00
C1212  C     0.85873   0.30159   0.90739   0.00000  Uiso   1.00
C1213  C     0.82118   0.28476   0.91202   0.00000  Uiso   1.00
C1214  C     0.92850   0.31184   0.94434   0.00000  Uiso   1.00
C1215  C     0.88898   0.29421   0.94400   0.00000  Uiso   1.00
C1216  C     0.78125   0.22907   0.94466   0.00000  Uiso   1.00
C1217  C     0.81423   0.25612   0.94918   0.00000  Uiso   1.00
C1218  C     0.96960   0.39840   0.82103   0.00000  Uiso   1.00
C1219  C     0.96570   0.39808   0.56618   0.00000  Uiso   1.00
C1220  C     0.93867   0.43190   0.32047   0.00000  Uiso   1.00
C1221  C     0.83580   0.59824   0.24018   0.00000  Uiso   1.00
C1222  C     0.78130   0.56667   0.44336   0.00000  Uiso   1.00
C1223  C     0.89118   0.47267   0.02442   0.00000  Uiso   1.00
C1224  C     0.91450   0.43247   0.36343   0.00000  Uiso   1.00
C1225  C     0.92704   0.45075   0.02270   0.00000  Uiso   1.00
C1226  C     0.87864   0.45167   0.36233   0.00000  Uiso   1.00
C1227  C     0.82183   0.48233   0.06663   0.00000  Uiso   1.00
C1228  C     0.86293   0.46545   0.06516   0.00000  Uiso   1.00
C1229  C     0.93680   0.42600   0.06711   0.00000  Uiso   1.00
C1230  C     0.87280   0.44256   0.10673   0.00000  Uiso   1.00
C1231  C     0.91130   0.42662   0.11002   0.00000  Uiso   1.00
C1232  C     0.77832   0.56648   0.19209   0.00000  Uiso   1.00
C1233  C     0.81149   0.59577   0.44574   0.00000  Uiso   1.00
C1234  C     0.89217   0.47145   0.27492   0.00000  Uiso   1.00
C1235  C     0.92965   0.45265   0.27699   0.00000  Uiso   1.00
C1236  C     0.82193   0.48235   0.31759   0.00000  Uiso   1.00
C1237  C     0.86534   0.46935   0.31764   0.00000  Uiso   1.00
C1238  C     0.96725   0.40085   0.31444   0.00000  Uiso   1.00
C1239  C     0.80960   0.59731   0.19580   0.00000  Uiso   1.00
C1240  C     0.83255   0.59956   0.49285   0.00000  Uiso   1.00
C1241  C     0.87754   0.45210   0.86618   0.00000  Uiso   1.00
C1242  C     0.78041   0.56756   0.94120   0.00000  Uiso   1.00
C1243  C     0.93781   0.42786   0.82086   0.00000  Uiso   1.00
C1244  C     0.80857   0.59786   0.70065   0.00000  Uiso   1.00
C1245  C     0.89122   0.47281   0.52636   0.00000  Uiso   1.00
C1246  C     0.92749   0.45230   0.52738   0.00000  Uiso   1.00
C1247  C     0.82222   0.48381   0.56748   0.00000  Uiso   1.00
C1248  C     0.86387   0.46804   0.56906   0.00000  Uiso   1.00
C1249  C     0.93698   0.42947   0.57059   0.00000  Uiso   1.00
C1250  C     0.87530   0.44880   0.61468   0.00000  Uiso   1.00
C1251  C     0.91286   0.43075   0.61511   0.00000  Uiso   1.00
C1252  C     0.78426   0.56469   0.69319   0.00000  Uiso   1.00
C1253  C     0.88878   0.46889   0.77371   0.00000  Uiso   1.00
C1254  C     0.91377   0.43128   0.86736   0.00000  Uiso   1.00
C1255  C     0.92527   0.44586   0.77390   0.00000  Uiso   1.00
C1256  C     0.82187   0.48289   0.81715   0.00000  Uiso   1.00
C1257  C     0.86374   0.46926   0.81868   0.00000  Uiso   1.00
C1258  C     0.81089   0.59764   0.94426   0.00000  Uiso   1.00
C1259  C     0.83353   0.59833   0.74484   0.00000  Uiso   1.00
C1260  C     0.81952   0.62013   0.40332   0.00000  Uiso   1.00
C1261  C     0.86871   0.62020   0.49336   0.00000  Uiso   1.00
C1262  C     0.87078   0.61922   0.24154   0.00000  Uiso   1.00
C1263  C     0.87929   0.78478   0.12006   0.00000  Uiso   1.00
C1264  C     0.92679   0.65203   0.19561   0.00000  Uiso   1.00
C1265  C     0.88448   0.63893   0.19632   0.00000  Uiso   1.00
C1266  C     0.92772   0.78234   0.03085   0.00000  Uiso   1.00
C1267  C     0.85387   0.64445   0.40580   0.00000  Uiso   1.00
C1268  C     0.97150   0.73267   0.07245   0.00000  Uiso   1.00
C1269  C     0.93853   0.76318   0.07435   0.00000  Uiso   1.00
C1270  C     0.91569   0.76576   0.12036   0.00000  Uiso   1.00
C1271  C     0.92478   0.65478   0.44914   0.00000  Uiso   1.00
C1272  C     0.88151   0.64027   0.44924   0.00000  Uiso   1.00
C1273  C     0.93026   0.78602   0.27906   0.00000  Uiso   1.00
C1274  C     0.85719   0.64169   0.15378   0.00000  Uiso   1.00
C1275  C     0.81981   0.62091   0.15266   0.00000  Uiso   1.00
C1276  C     0.97097   0.73477   0.32201   0.00000  Uiso   1.00
C1277  C     0.94209   0.76625   0.32490   0.00000  Uiso   1.00
C1278  C     0.87984   0.78267   0.36682   0.00000  Uiso   1.00
C1279  C     0.91802   0.76699   0.36862   0.00000  Uiso   1.00
C1280  C     0.82080   0.62108   0.90062   0.00000  Uiso   1.00
C1281  C     0.81804   0.62358   0.65852   0.00000  Uiso   1.00
C1282  C     0.92347   0.65043   0.69658   0.00000  Uiso   1.00
C1283  C     0.88190   0.63905   0.69885   0.00000  Uiso   1.00
C1284  C     0.87722   0.78222   0.61490   0.00000  Uiso   1.00
C1285  C     0.92774   0.78222   0.52878   0.00000  Uiso   1.00
C1286  C     0.85604   0.64416   0.90462   0.00000  Uiso   1.00
C1287  C     0.96974   0.73226   0.57465   0.00000  Uiso   1.00
C1288  C     0.93886   0.76310   0.57469   0.00000  Uiso   1.00
C1289  C     0.91344   0.76417   0.61954   0.00000  Uiso   1.00
C1290  C     0.92367   0.65515   0.94800   0.00000  Uiso   1.00
C1291  C     0.88191   0.64290   0.94989   0.00000  Uiso   1.00
C1292  C     0.93439   0.78459   0.78348   0.00000  Uiso   1.00
C1293  C     0.85361   0.64375   0.65756   0.00000  Uiso   1.00
C1294  C     0.86868   0.62155   0.99347   0.00000  Uiso   1.00
C1295  C     0.97389   0.73288   0.82119   0.00000  Uiso   1.00
C1296  C     0.94258   0.76274   0.82651   0.00000  Uiso   1.00
C1297  C     0.88119   0.78177   0.86873   0.00000  Uiso   1.00
C1298  C     0.91820   0.76276   0.87145   0.00000  Uiso   1.00
C1299  C     0.86747   0.62021   0.74633   0.00000  Uiso   1.00
C1300  C     0.83312   0.60150   0.99149   0.00000  Uiso   1.00
C1301  C     0.82476   0.81324   0.06905   0.00000  Uiso   1.00
C1302  C     0.82495   0.82055   0.32119   0.00000  Uiso   1.00
C1303  C     0.86905   0.94644   0.48910   0.00000  Uiso   1.00
C1304  C     0.86737   0.95538   0.24265   0.00000  Uiso   1.00
C1305  C     0.83307   0.93409   0.24361   0.00000  Uiso   1.00
C1306  C     0.85329   0.97436   0.15385   0.00000  Uiso   1.00
C1307  C     0.81744   0.95371   0.15336   0.00000  Uiso   1.00
C1308  C     0.92541   0.97892   0.19276   0.00000  Uiso   1.00
C1309  C     0.88153   0.97002   0.19599   0.00000  Uiso   1.00
C1310  C     0.78037   0.89957   0.19368   0.00000  Uiso   1.00
C1311  C     0.80930   0.92943   0.19738   0.00000  Uiso   1.00
C1312  C     0.83082   0.93210   0.49335   0.00000  Uiso   1.00
C1313  C     0.85240   0.97328   0.40879   0.00000  Uiso   1.00
C1314  C     0.81555   0.95353   0.40796   0.00000  Uiso   1.00
C1315  C     0.92459   0.97663   0.44284   0.00000  Uiso   1.00
C1316  C     0.88157   0.96535   0.44548   0.00000  Uiso   1.00
C1317  C     0.77643   0.89733   0.44439   0.00000  Uiso   1.00
C1318  C     0.80533   0.92978   0.44996   0.00000  Uiso   1.00
C1319  C     0.89295   0.80402   0.03027   0.00000  Uiso   1.00
C1320  C     0.86712   0.80242   0.07395   0.00000  Uiso   1.00
C1321  C     0.86761   0.80388   0.32207   0.00000  Uiso   1.00
C1322  C     0.89390   0.80599   0.27809   0.00000  Uiso   1.00
C1323  C     0.82531   0.81320   0.82029   0.00000  Uiso   1.00
C1324  C     0.83495   0.93153   0.99309   0.00000  Uiso   1.00
C1325  C     0.82307   0.81711   0.56729   0.00000  Uiso   1.00
C1326  C     0.87189   0.93734   0.73357   0.00000  Uiso   1.00
C1327  C     0.83258   0.92338   0.73820   0.00000  Uiso   1.00
C1328  C     0.85369   0.96985   0.65491   0.00000  Uiso   1.00
C1329  C     0.81657   0.95058   0.65405   0.00000  Uiso   1.00
C1330  C     0.92400   0.97714   0.69150   0.00000  Uiso   1.00
C1331  C     0.88289   0.96112   0.69274   0.00000  Uiso   1.00
C1332  C     0.77555   0.89765   0.69264   0.00000  Uiso   1.00
C1333  C     0.80721   0.92691   0.69621   0.00000  Uiso   1.00
C1334  C     0.87066   0.94911   0.98971   0.00000  Uiso   1.00
C1335  C     0.85807   0.96925   0.90034   0.00000  Uiso   1.00
C1336  C     0.82420   0.94434   0.90107   0.00000  Uiso   1.00
C1337  C     0.92540   0.98384   0.94446   0.00000  Uiso   1.00
C1338  C     0.88316   0.96775   0.94270   0.00000  Uiso   1.00
C1339  C     0.77934   0.89363   0.94532   0.00000  Uiso   1.00
C1340  C     0.81234   0.92414   0.94654   0.00000  Uiso   1.00
C1341  C     0.86927   0.80012   0.82279   0.00000  Uiso   1.00
C1342  C     0.89407   0.80483   0.53089   0.00000  Uiso   1.00
C1343  C     0.89770   0.80243   0.78087   0.00000  Uiso   1.00
C1344  C     0.86548   0.80100   0.57071   0.00000  Uiso   1.00
O1345  O     0.19686   0.17897   0.48618   0.00000  Uiso   1.00
O1346  O     0.05332   0.00852   0.27390   0.00000  Uiso   1.00
O1347  O     0.22850   0.11800   0.11407   0.00000  Uiso   1.00
O1348  O     0.19632   0.18566   0.14520   0.00000  Uiso   1.00
O1349  O     0.05315   0.01260   0.11541   0.00000  Uiso   1.00
O1350  O     0.22765   0.11850   0.02117   0.00000  Uiso   1.00
O1351  O     0.05610   0.00951   0.02471   0.00000  Uiso   1.00
O1352  O     0.19569   0.18234   0.23663   0.00000  Uiso   1.00
O1353  O     0.23195   0.11385   0.35611   0.00000  Uiso   1.00
O1354  O     0.19638   0.17952   0.39320   0.00000  Uiso   1.00
O1355  O     0.05214   0.01282   0.36380   0.00000  Uiso   1.00
O1356  O     0.22656   0.11569   0.26488   0.00000  Uiso   1.00
O1357  O     0.19439   0.17944   0.98579   0.00000  Uiso   1.00
O1358  O     0.05320   0.01598   0.77255   0.00000  Uiso   1.00
O1359  O     0.23002   0.11538   0.61463   0.00000  Uiso   1.00
O1360  O     0.19633   0.17717   0.64552   0.00000  Uiso   1.00
O1361  O     0.05234   0.01024   0.61465   0.00000  Uiso   1.00
O1362  O     0.22809   0.11422   0.52240   0.00000  Uiso   1.00
O1363  O     0.05273   0.01039   0.52057   0.00000  Uiso   1.00
O1364  O     0.19693   0.18121   0.73763   0.00000  Uiso   1.00
O1365  O     0.22796   0.11603   0.86044   0.00000  Uiso   1.00
O1366  O     0.19479   0.18050   0.89283   0.00000  Uiso   1.00
O1367  O     0.05616   0.01064   0.86553   0.00000  Uiso   1.00
O1368  O     0.22462   0.11372   0.76853   0.00000  Uiso   1.00
O1369  O     0.05533   0.35181   0.26818   0.00000  Uiso   1.00
O1370  O     0.05401   0.35355   0.36098   0.00000  Uiso   1.00
O1371  O     0.02490   0.28856   0.48550   0.00000  Uiso   1.00
O1372  O     0.02654   0.28772   0.39339   0.00000  Uiso   1.00
O1373  O     0.05694   0.35121   0.01638   0.00000  Uiso   1.00
O1374  O     0.05570   0.35210   0.11143   0.00000  Uiso   1.00
O1375  O     0.02814   0.28800   0.14517   0.00000  Uiso   1.00
O1376  O     0.02118   0.28931   0.23451   0.00000  Uiso   1.00
O1377  O     0.05610   0.34815   0.76776   0.00000  Uiso   1.00
O1378  O     0.05199   0.35228   0.85964   0.00000  Uiso   1.00
O1379  O     0.02258   0.28623   0.98818   0.00000  Uiso   1.00
O1380  O     0.02232   0.28680   0.89627   0.00000  Uiso   1.00
O1381  O     0.05440   0.35382   0.51806   0.00000  Uiso   1.00
O1382  O     0.02205   0.28534   0.64452   0.00000  Uiso   1.00
O1383  O     0.02114   0.28479   0.73816   0.00000  Uiso   1.00
O1384  O     0.05503   0.34763   0.60960   0.00000  Uiso   1.00
O1385  O     0.19609   0.51374   0.48351   0.00000  Uiso   1.00
O1386  O     0.23197   0.44982   0.02151   0.00000  Uiso   1.00
O1387  O     0.19836   0.51483   0.23607   0.00000  Uiso   1.00
O1388  O     0.23012   0.44877   0.26925   0.00000  Uiso   1.00
O1389  O     0.19422   0.51589   0.14622   0.00000  Uiso   1.00
O1390  O     0.23020   0.45182   0.11224   0.00000  Uiso   1.00
O1391  O     0.22917   0.44966   0.36115   0.00000  Uiso   1.00
O1392  O     0.19485   0.51667   0.39054   0.00000  Uiso   1.00
O1393  O     0.19306   0.50737   0.98393   0.00000  Uiso   1.00
O1394  O     0.19532   0.51528   0.73633   0.00000  Uiso   1.00
O1395  O     0.23115   0.45161   0.86246   0.00000  Uiso   1.00
O1396  O     0.22829   0.45167   0.76973   0.00000  Uiso   1.00
O1397  O     0.19378   0.51631   0.64212   0.00000  Uiso   1.00
O1398  O     0.23146   0.44979   0.51739   0.00000  Uiso   1.00
O1399  O     0.22811   0.45340   0.61031   0.00000  Uiso   1.00
O1400  O     0.19738   0.51827   0.89213   0.00000  Uiso   1.00
O1401  O     0.05346   0.68294   0.36639   0.00000  Uiso   1.00
O1402  O     0.05294   0.68388   0.27649   0.00000  Uiso   1.00
O1403  O     0.22726   0.78595   0.27321   0.00000  Uiso   1.00
O1404  O     0.01893   0.61826   0.39839   0.00000  Uiso   1.00
O1405  O     0.02137   0.61904   0.49220   0.00000  Uiso   1.00
O1406  O     0.22596   0.78921   0.36476   0.00000  Uiso   1.00
O1407  O     0.02481   0.61766   0.15249   0.00000  Uiso   1.00
O1408  O     0.02043   0.61934   0.24447   0.00000  Uiso   1.00
O1409  O     0.22860   0.78678   0.11491   0.00000  Uiso   1.00
O1410  O     0.05520   0.68126   0.11589   0.00000  Uiso   1.00
O1411  O     0.22824   0.78260   0.02184   0.00000  Uiso   1.00
O1412  O     0.05750   0.68257   0.02620   0.00000  Uiso   1.00
O1413  O     0.05444   0.67912   0.86549   0.00000  Uiso   1.00
O1414  O     0.05364   0.67790   0.77431   0.00000  Uiso   1.00
O1415  O     0.22691   0.78418   0.77227   0.00000  Uiso   1.00
O1416  O     0.01908   0.61685   0.89959   0.00000  Uiso   1.00
O1417  O     0.02102   0.61935   0.99244   0.00000  Uiso   1.00
O1418  O     0.22746   0.78525   0.86395   0.00000  Uiso   1.00
O1419  O     0.02137   0.61750   0.64912   0.00000  Uiso   1.00
O1420  O     0.01723   0.61655   0.74117   0.00000  Uiso   1.00
O1421  O     0.22692   0.78921   0.61613   0.00000  Uiso   1.00
O1422  O     0.05453   0.67932   0.61874   0.00000  Uiso   1.00
O1423  O     0.23107   0.78313   0.52232   0.00000  Uiso   1.00
O1424  O     0.05514   0.68316   0.52841   0.00000  Uiso   1.00
O1425  O     0.01995   0.94712   0.14714   0.00000  Uiso   1.00
O1426  O     0.19127   0.84621   0.15091   0.00000  Uiso   1.00
O1427  O     0.01403   0.94744   0.23951   0.00000  Uiso   1.00
O1428  O     0.19394   0.84990   0.24347   0.00000  Uiso   1.00
O1429  O     0.01887   0.94714   0.39765   0.00000  Uiso   1.00
O1430  O     0.19550   0.85225   0.39985   0.00000  Uiso   1.00
O1431  O     0.01338   0.94565   0.48939   0.00000  Uiso   1.00
O1432  O     0.19567   0.84883   0.49353   0.00000  Uiso   1.00
O1433  O     0.02127   0.94509   0.64690   0.00000  Uiso   1.00
O1434  O     0.19726   0.85172   0.64988   0.00000  Uiso   1.00
O1435  O     0.02233   0.94875   0.73916   0.00000  Uiso   1.00
O1436  O     0.19677   0.84875   0.74174   0.00000  Uiso   1.00
O1437  O     0.02143   0.94765   0.89868   0.00000  Uiso   1.00
O1438  O     0.19397   0.85081   0.89858   0.00000  Uiso   1.00
O1439  O     0.02019   0.94774   0.99297   0.00000  Uiso   1.00
O1440  O     0.19367   0.84482   0.98860   0.00000  Uiso   1.00
O1441  O     0.48200   0.04897   0.36463   0.00000  Uiso   1.00
O1442  O     0.30684   0.15158   0.27034   0.00000  Uiso   1.00
O1443  O     0.30385   0.15047   0.36343   0.00000  Uiso   1.00
O1444  O     0.47579   0.04675   0.27026   0.00000  Uiso   1.00
O1445  O     0.48199   0.04838   0.02290   0.00000  Uiso   1.00
O1446  O     0.30402   0.14589   0.01604   0.00000  Uiso   1.00
O1447  O     0.47735   0.04626   0.11593   0.00000  Uiso   1.00
O1448  O     0.30285   0.15036   0.10748   0.00000  Uiso   1.00
O1449  O     0.47596   0.04823   0.77262   0.00000  Uiso   1.00
O1450  O     0.30476   0.14533   0.77382   0.00000  Uiso   1.00
O1451  O     0.30500   0.15008   0.86422   0.00000  Uiso   1.00
O1452  O     0.48267   0.04884   0.86458   0.00000  Uiso   1.00
O1453  O     0.48343   0.05010   0.52479   0.00000  Uiso   1.00
O1454  O     0.30602   0.14676   0.51706   0.00000  Uiso   1.00
O1455  O     0.48489   0.05101   0.61600   0.00000  Uiso   1.00
O1456  O     0.30683   0.14908   0.60913   0.00000  Uiso   1.00
O1457  O     0.48235   0.38157   0.27425   0.00000  Uiso   1.00
O1458  O     0.48077   0.37959   0.36649   0.00000  Uiso   1.00
O1459  O     0.27027   0.21690   0.23573   0.00000  Uiso   1.00
O1460  O     0.44888   0.31910   0.23822   0.00000  Uiso   1.00
O1461  O     0.44464   0.31893   0.39770   0.00000  Uiso   1.00
O1462  O     0.27220   0.21638   0.14189   0.00000  Uiso   1.00
O1463  O     0.44953   0.31800   0.14803   0.00000  Uiso   1.00
O1464  O     0.47532   0.38245   0.02335   0.00000  Uiso   1.00
O1465  O     0.47925   0.38311   0.11659   0.00000  Uiso   1.00
O1466  O     0.26869   0.21331   0.48562   0.00000  Uiso   1.00
O1467  O     0.44442   0.31728   0.49029   0.00000  Uiso   1.00
O1468  O     0.27033   0.21478   0.39564   0.00000  Uiso   1.00
O1469  O     0.44722   0.31547   0.90018   0.00000  Uiso   1.00
O1470  O     0.48005   0.38214   0.86615   0.00000  Uiso   1.00
O1471  O     0.27274   0.21390   0.89358   0.00000  Uiso   1.00
O1472  O     0.47850   0.38242   0.77236   0.00000  Uiso   1.00
O1473  O     0.27721   0.21061   0.74169   0.00000  Uiso   1.00
O1474  O     0.44680   0.31777   0.74337   0.00000  Uiso   1.00
O1475  O     0.27186   0.21266   0.64738   0.00000  Uiso   1.00
O1476  O     0.44661   0.32035   0.65099   0.00000  Uiso   1.00
O1477  O     0.47989   0.38112   0.52507   0.00000  Uiso   1.00
O1478  O     0.48012   0.37932   0.61625   0.00000  Uiso   1.00
O1479  O     0.27408   0.21244   0.98702   0.00000  Uiso   1.00
O1480  O     0.44814   0.31774   0.99042   0.00000  Uiso   1.00
O1481  O     0.30635   0.48970   0.02139   0.00000  Uiso   1.00
O1482  O     0.30824   0.48577   0.36062   0.00000  Uiso   1.00
O1483  O     0.30885   0.48364   0.26673   0.00000  Uiso   1.00
O1484  O     0.27123   0.54960   0.48273   0.00000  Uiso   1.00
O1485  O     0.27336   0.54973   0.39041   0.00000  Uiso   1.00
O1486  O     0.30386   0.48693   0.11137   0.00000  Uiso   1.00
O1487  O     0.27086   0.55175   0.14482   0.00000  Uiso   1.00
O1488  O     0.27251   0.54722   0.23588   0.00000  Uiso   1.00
O1489  O     0.30459   0.48817   0.76522   0.00000  Uiso   1.00
O1490  O     0.30581   0.48372   0.85822   0.00000  Uiso   1.00
O1491  O     0.26315   0.55080   0.98512   0.00000  Uiso   1.00
O1492  O     0.27033   0.55205   0.64342   0.00000  Uiso   1.00
O1493  O     0.26835   0.55072   0.73526   0.00000  Uiso   1.00
O1494  O     0.27775   0.54758   0.89302   0.00000  Uiso   1.00
O1495  O     0.30483   0.48806   0.61034   0.00000  Uiso   1.00
O1496  O     0.30895   0.48871   0.51695   0.00000  Uiso   1.00
O1497  O     0.47907   0.72028   0.35990   0.00000  Uiso   1.00
O1498  O     0.47575   0.72015   0.26736   0.00000  Uiso   1.00
O1499  O     0.44300   0.65396   0.39258   0.00000  Uiso   1.00
O1500  O     0.44218   0.65493   0.23649   0.00000  Uiso   1.00
O1501  O     0.44053   0.65499   0.14514   0.00000  Uiso   1.00
O1502  O     0.47919   0.71983   0.01910   0.00000  Uiso   1.00
O1503  O     0.47612   0.71896   0.11020   0.00000  Uiso   1.00
O1504  O     0.44278   0.65867   0.48558   0.00000  Uiso   1.00
O1505  O     0.47984   0.71260   0.86495   0.00000  Uiso   1.00
O1506  O     0.44211   0.64904   0.89648   0.00000  Uiso   1.00
O1507  O     0.47878   0.71576   0.77302   0.00000  Uiso   1.00
O1508  O     0.44345   0.65587   0.73721   0.00000  Uiso   1.00
O1509  O     0.44453   0.65038   0.64472   0.00000  Uiso   1.00
O1510  O     0.47901   0.71683   0.52084   0.00000  Uiso   1.00
O1511  O     0.47512   0.71401   0.61191   0.00000  Uiso   1.00
O1512  O     0.44249   0.65371   0.98660   0.00000  Uiso   1.00
O1513  O     0.30261   0.82225   0.36330   0.00000  Uiso   1.00
O1514  O     0.44572   0.98542   0.39846   0.00000  Uiso   1.00
O1515  O     0.26801   0.88445   0.23921   0.00000  Uiso   1.00
O1516  O     0.30463   0.82131   0.02167   0.00000  Uiso   1.00
O1517  O     0.44500   0.98152   0.24075   0.00000  Uiso   1.00
O1518  O     0.26926   0.88492   0.14603   0.00000  Uiso   1.00
O1519  O     0.44187   0.98292   0.14803   0.00000  Uiso   1.00
O1520  O     0.30356   0.82067   0.11198   0.00000  Uiso   1.00
O1521  O     0.27231   0.88361   0.49153   0.00000  Uiso   1.00
O1522  O     0.30335   0.82016   0.27113   0.00000  Uiso   1.00
O1523  O     0.44817   0.98678   0.49133   0.00000  Uiso   1.00
O1524  O     0.27270   0.88490   0.39879   0.00000  Uiso   1.00
O1525  O     0.30515   0.82011   0.86495   0.00000  Uiso   1.00
O1526  O     0.44254   0.98884   0.98757   0.00000  Uiso   1.00
O1527  O     0.27339   0.88024   0.74145   0.00000  Uiso   1.00
O1528  O     0.30633   0.82105   0.52280   0.00000  Uiso   1.00
O1529  O     0.44806   0.98556   0.73797   0.00000  Uiso   1.00
O1530  O     0.27629   0.88434   0.64747   0.00000  Uiso   1.00
O1531  O     0.44644   0.98581   0.64731   0.00000  Uiso   1.00
O1532  O     0.30445   0.81665   0.61475   0.00000  Uiso   1.00
O1533  O     0.26676   0.88331   0.99167   0.00000  Uiso   1.00
O1534  O     0.30869   0.81632   0.77527   0.00000  Uiso   1.00
O1535  O     0.26878   0.88330   0.89868   0.00000  Uiso   1.00
O1536  O     0.44432   0.98586   0.89482   0.00000  Uiso   1.00
O1537  O     0.69520   0.18383   0.48989   0.00000  Uiso   1.00
O1538  O     0.55519   0.01837   0.27039   0.00000  Uiso   1.00
O1539  O     0.72933   0.11723   0.11715   0.00000  Uiso   1.00
O1540  O     0.69668   0.18151   0.14733   0.00000  Uiso   1.00
O1541  O     0.55306   0.01241   0.11614   0.00000  Uiso   1.00
O1542  O     0.72952   0.11401   0.02427   0.00000  Uiso   1.00
O1543  O     0.55559   0.00848   0.02293   0.00000  Uiso   1.00
O1544  O     0.69718   0.18303   0.24013   0.00000  Uiso   1.00
O1545  O     0.72822   0.12062   0.36503   0.00000  Uiso   1.00
O1546  O     0.69768   0.18580   0.39664   0.00000  Uiso   1.00
O1547  O     0.55580   0.01270   0.36241   0.00000  Uiso   1.00
O1548  O     0.73018   0.11908   0.27372   0.00000  Uiso   1.00
O1549  O     0.69685   0.17872   0.99095   0.00000  Uiso   1.00
O1550  O     0.55521   0.01696   0.77637   0.00000  Uiso   1.00
O1551  O     0.72571   0.12000   0.61541   0.00000  Uiso   1.00
O1552  O     0.69567   0.18439   0.64950   0.00000  Uiso   1.00
O1553  O     0.55879   0.01238   0.61546   0.00000  Uiso   1.00
O1554  O     0.72547   0.11828   0.52371   0.00000  Uiso   1.00
O1555  O     0.55899   0.01350   0.52199   0.00000  Uiso   1.00
O1556  O     0.69544   0.18241   0.74293   0.00000  Uiso   1.00
O1557  O     0.72400   0.11914   0.86807   0.00000  Uiso   1.00
O1558  O     0.69505   0.18319   0.89777   0.00000  Uiso   1.00
O1559  O     0.55513   0.01055   0.86540   0.00000  Uiso   1.00
O1560  O     0.72506   0.11652   0.77645   0.00000  Uiso   1.00
O1561  O     0.55869   0.35025   0.27560   0.00000  Uiso   1.00
O1562  O     0.55714   0.34368   0.36635   0.00000  Uiso   1.00
O1563  O     0.51855   0.27979   0.49055   0.00000  Uiso   1.00
O1564  O     0.52062   0.28179   0.39818   0.00000  Uiso   1.00
O1565  O     0.55606   0.35754   0.02443   0.00000  Uiso   1.00
O1566  O     0.52573   0.28296   0.14679   0.00000  Uiso   1.00
O1567  O     0.52208   0.28321   0.23924   0.00000  Uiso   1.00
O1568  O     0.55908   0.34875   0.11402   0.00000  Uiso   1.00
O1569  O     0.55818   0.34863   0.77262   0.00000  Uiso   1.00
O1570  O     0.55681   0.35010   0.86540   0.00000  Uiso   1.00
O1571  O     0.52574   0.28456   0.90121   0.00000  Uiso   1.00
O1572  O     0.55743   0.34443   0.52339   0.00000  Uiso   1.00
O1573  O     0.52858   0.28899   0.99221   0.00000  Uiso   1.00
O1574  O     0.52188   0.28241   0.65119   0.00000  Uiso   1.00
O1575  O     0.52356   0.28418   0.74377   0.00000  Uiso   1.00
O1576  O     0.55770   0.34227   0.61558   0.00000  Uiso   1.00
O1577  O     0.69415   0.51969   0.39773   0.00000  Uiso   1.00
O1578  O     0.69489   0.51833   0.48799   0.00000  Uiso   1.00
O1579  O     0.72501   0.45571   0.36598   0.00000  Uiso   1.00
O1580  O     0.69313   0.51505   0.14629   0.00000  Uiso   1.00
O1581  O     0.69415   0.51493   0.23894   0.00000  Uiso   1.00
O1582  O     0.72484   0.45312   0.27272   0.00000  Uiso   1.00
O1583  O     0.72900   0.45331   0.11308   0.00000  Uiso   1.00
O1584  O     0.73257   0.45174   0.01998   0.00000  Uiso   1.00
O1585  O     0.72651   0.45535   0.61238   0.00000  Uiso   1.00
O1586  O     0.69236   0.51305   0.98580   0.00000  Uiso   1.00
O1587  O     0.72516   0.45545   0.52156   0.00000  Uiso   1.00
O1588  O     0.72914   0.45095   0.76926   0.00000  Uiso   1.00
O1589  O     0.72997   0.45251   0.86129   0.00000  Uiso   1.00
O1590  O     0.69711   0.52288   0.64717   0.00000  Uiso   1.00
O1591  O     0.69360   0.51131   0.73416   0.00000  Uiso   1.00
O1592  O     0.69419   0.51525   0.89525   0.00000  Uiso   1.00
O1593  O     0.55346   0.68489   0.35983   0.00000  Uiso   1.00
O1594  O     0.55363   0.68540   0.26752   0.00000  Uiso   1.00
O1595  O     0.51485   0.61602   0.48215   0.00000  Uiso   1.00
O1596  O     0.73017   0.78312   0.27479   0.00000  Uiso   1.00
O1597  O     0.73237   0.78544   0.36522   0.00000  Uiso   1.00
O1598  O     0.52165   0.61986   0.39083   0.00000  Uiso   1.00
O1599  O     0.52050   0.62038   0.14192   0.00000  Uiso   1.00
O1600  O     0.51821   0.62361   0.23431   0.00000  Uiso   1.00
O1601  O     0.72891   0.78378   0.11364   0.00000  Uiso   1.00
O1602  O     0.55265   0.68384   0.11207   0.00000  Uiso   1.00
O1603  O     0.72548   0.78229   0.02123   0.00000  Uiso   1.00
O1604  O     0.55597   0.68368   0.01929   0.00000  Uiso   1.00
O1605  O     0.55485   0.68129   0.86174   0.00000  Uiso   1.00
O1606  O     0.55506   0.68133   0.76947   0.00000  Uiso   1.00
O1607  O     0.73283   0.77885   0.76993   0.00000  Uiso   1.00
O1608  O     0.52162   0.62017   0.98863   0.00000  Uiso   1.00
O1609  O     0.52340   0.61697   0.89636   0.00000  Uiso   1.00
O1610  O     0.73036   0.77949   0.86242   0.00000  Uiso   1.00
O1611  O     0.52230   0.61624   0.64466   0.00000  Uiso   1.00
O1612  O     0.51891   0.61642   0.73766   0.00000  Uiso   1.00
O1613  O     0.73116   0.78358   0.61341   0.00000  Uiso   1.00
O1614  O     0.55180   0.68117   0.61127   0.00000  Uiso   1.00
O1615  O     0.72950   0.78266   0.51928   0.00000  Uiso   1.00
O1616  O     0.55602   0.67559   0.51830   0.00000  Uiso   1.00
O1617  O     0.52032   0.94735   0.14825   0.00000  Uiso   1.00
O1618  O     0.69427   0.84848   0.14680   0.00000  Uiso   1.00
O1619  O     0.52451   0.95214   0.23817   0.00000  Uiso   1.00
O1620  O     0.69758   0.84526   0.23755   0.00000  Uiso   1.00
O1621  O     0.52431   0.94799   0.39791   0.00000  Uiso   1.00
O1622  O     0.69297   0.84750   0.39315   0.00000  Uiso   1.00
O1623  O     0.52136   0.94737   0.48843   0.00000  Uiso   1.00
O1624  O     0.69414   0.84460   0.48738   0.00000  Uiso   1.00
O1625  O     0.51669   0.94836   0.98858   0.00000  Uiso   1.00
O1626  O     0.52087   0.94908   0.64815   0.00000  Uiso   1.00
O1627  O     0.69347   0.84190   0.64840   0.00000  Uiso   1.00
O1628  O     0.52439   0.95002   0.74143   0.00000  Uiso   1.00
O1629  O     0.69226   0.84203   0.74040   0.00000  Uiso   1.00
O1630  O     0.51903   0.94793   0.89596   0.00000  Uiso   1.00
O1631  O     0.69254   0.84300   0.89471   0.00000  Uiso   1.00
O1632  O     0.69425   0.84764   0.98687   0.00000  Uiso   1.00
O1633  O     0.97847   0.04601   0.36368   0.00000  Uiso   1.00
O1634  O     0.80755   0.15105   0.27373   0.00000  Uiso   1.00
O1635  O     0.80652   0.15189   0.36580   0.00000  Uiso   1.00
O1636  O     0.97897   0.04738   0.27263   0.00000  Uiso   1.00
O1637  O     0.98025   0.04833   0.02312   0.00000  Uiso   1.00
O1638  O     0.80591   0.14923   0.02103   0.00000  Uiso   1.00
O1639  O     0.97411   0.04432   0.11610   0.00000  Uiso   1.00
O1640  O     0.80575   0.15013   0.11377   0.00000  Uiso   1.00
O1641  O     0.97608   0.04684   0.76905   0.00000  Uiso   1.00
O1642  O     0.80444   0.14927   0.86565   0.00000  Uiso   1.00
O1643  O     0.80449   0.14756   0.77169   0.00000  Uiso   1.00
O1644  O     0.97844   0.04494   0.86311   0.00000  Uiso   1.00
O1645  O     0.97640   0.04708   0.52324   0.00000  Uiso   1.00
O1646  O     0.80403   0.14850   0.52262   0.00000  Uiso   1.00
O1647  O     0.97693   0.04401   0.61595   0.00000  Uiso   1.00
O1648  O     0.80355   0.15098   0.61591   0.00000  Uiso   1.00
O1649  O     0.94534   0.31970   0.38939   0.00000  Uiso   1.00
O1650  O     0.97763   0.38385   0.35982   0.00000  Uiso   1.00
O1651  O     0.97559   0.38670   0.26825   0.00000  Uiso   1.00
O1652  O     0.77376   0.21465   0.23594   0.00000  Uiso   1.00
O1653  O     0.94451   0.32169   0.23592   0.00000  Uiso   1.00
O1654  O     0.77361   0.21524   0.14422   0.00000  Uiso   1.00
O1655  O     0.94679   0.32009   0.14332   0.00000  Uiso   1.00
O1656  O     0.97710   0.38262   0.01846   0.00000  Uiso   1.00
O1657  O     0.97851   0.38312   0.11233   0.00000  Uiso   1.00
O1658  O     0.77471   0.21453   0.49131   0.00000  Uiso   1.00
O1659  O     0.94654   0.31804   0.48289   0.00000  Uiso   1.00
O1660  O     0.77716   0.21628   0.39845   0.00000  Uiso   1.00
O1661  O     0.94593   0.31734   0.89871   0.00000  Uiso   1.00
O1662  O     0.97797   0.38435   0.77290   0.00000  Uiso   1.00
O1663  O     0.97717   0.38110   0.86635   0.00000  Uiso   1.00
O1664  O     0.77537   0.21154   0.73933   0.00000  Uiso   1.00
O1665  O     0.94511   0.31982   0.73816   0.00000  Uiso   1.00
O1666  O     0.77211   0.21556   0.64926   0.00000  Uiso   1.00
O1667  O     0.94491   0.31665   0.64473   0.00000  Uiso   1.00
O1668  O     0.97323   0.38515   0.51875   0.00000  Uiso   1.00
O1669  O     0.97729   0.38252   0.61144   0.00000  Uiso   1.00
O1670  O     0.77101   0.21409   0.98775   0.00000  Uiso   1.00
O1671  O     0.94759   0.31534   0.98969   0.00000  Uiso   1.00
O1672  O     0.77530   0.21489   0.89717   0.00000  Uiso   1.00
O1673  O     0.80561   0.48942   0.02082   0.00000  Uiso   1.00
O1674  O     0.80278   0.48491   0.36390   0.00000  Uiso   1.00
O1675  O     0.77085   0.55269   0.14550   0.00000  Uiso   1.00
O1676  O     0.77081   0.55078   0.48913   0.00000  Uiso   1.00
O1677  O     0.80377   0.48573   0.27141   0.00000  Uiso   1.00
O1678  O     0.77620   0.55085   0.39683   0.00000  Uiso   1.00
O1679  O     0.80358   0.48694   0.11264   0.00000  Uiso   1.00
O1680  O     0.77023   0.54908   0.23812   0.00000  Uiso   1.00
O1681  O     0.80497   0.48815   0.52048   0.00000  Uiso   1.00
O1682  O     0.76911   0.54984   0.73782   0.00000  Uiso   1.00
O1683  O     0.80385   0.48690   0.86274   0.00000  Uiso   1.00
O1684  O     0.77111   0.55188   0.98555   0.00000  Uiso   1.00
O1685  O     0.80355   0.48721   0.77078   0.00000  Uiso   1.00
O1686  O     0.77224   0.55006   0.89496   0.00000  Uiso   1.00
O1687  O     0.80131   0.48801   0.61221   0.00000  Uiso   1.00
O1688  O     0.77429   0.55112   0.64563   0.00000  Uiso   1.00
O1689  O     0.98112   0.71978   0.36795   0.00000  Uiso   1.00
O1690  O     0.97994   0.71983   0.27516   0.00000  Uiso   1.00
O1691  O     0.94242   0.66044   0.40219   0.00000  Uiso   1.00
O1692  O     0.94344   0.65403   0.49417   0.00000  Uiso   1.00
O1693  O     0.94365   0.65839   0.24205   0.00000  Uiso   1.00
O1694  O     0.94626   0.65348   0.15037   0.00000  Uiso   1.00
O1695  O     0.97895   0.71739   0.02555   0.00000  Uiso   1.00
O1696  O     0.98084   0.71688   0.11860   0.00000  Uiso   1.00
O1697  O     0.98436   0.71753   0.86643   0.00000  Uiso   1.00
O1698  O     0.97757   0.71651   0.77525   0.00000  Uiso   1.00
O1699  O     0.94140   0.65406   0.90091   0.00000  Uiso   1.00
O1700  O     0.94113   0.65488   0.74388   0.00000  Uiso   1.00
O1701  O     0.94299   0.64957   0.65009   0.00000  Uiso   1.00
O1702  O     0.97816   0.71567   0.52798   0.00000  Uiso   1.00
O1703  O     0.97544   0.71391   0.61955   0.00000  Uiso   1.00
O1704  O     0.94300   0.65955   0.99451   0.00000  Uiso   1.00
O1705  O     0.80586   0.82273   0.36666   0.00000  Uiso   1.00
O1706  O     0.94341   0.98032   0.39621   0.00000  Uiso   1.00
O1707  O     0.77192   0.88268   0.23925   0.00000  Uiso   1.00
O1708  O     0.80561   0.81536   0.02181   0.00000  Uiso   1.00
O1709  O     0.94278   0.98665   0.24043   0.00000  Uiso   1.00
O1710  O     0.77210   0.88454   0.14521   0.00000  Uiso   1.00
O1711  O     0.94275   0.98258   0.14579   0.00000  Uiso   1.00
O1712  O     0.80436   0.81821   0.11443   0.00000  Uiso   1.00
O1713  O     0.76780   0.88079   0.48931   0.00000  Uiso   1.00
O1714  O     0.80532   0.82149   0.27468   0.00000  Uiso   1.00
O1715  O     0.94247   0.98285   0.48920   0.00000  Uiso   1.00
O1716  O     0.76888   0.88405   0.39655   0.00000  Uiso   1.00
O1717  O     0.80595   0.81611   0.86660   0.00000  Uiso   1.00
O1718  O     0.76489   0.88133   0.73728   0.00000  Uiso   1.00
O1719  O     0.80722   0.81745   0.52087   0.00000  Uiso   1.00
O1720  O     0.94336   0.98173   0.73897   0.00000  Uiso   1.00
O1721  O     0.77164   0.88141   0.64716   0.00000  Uiso   1.00
O1722  O     0.94286   0.97893   0.64800   0.00000  Uiso   1.00
O1723  O     0.80417   0.82066   0.61257   0.00000  Uiso   1.00
O1724  O     0.77163   0.87874   0.99136   0.00000  Uiso   1.00
O1725  O     0.80786   0.81924   0.77300   0.00000  Uiso   1.00
O1726  O     0.94154   0.98904   0.99117   0.00000  Uiso   1.00
O1727  O     0.77043   0.87963   0.89795   0.00000  Uiso   1.00
O1728  O     0.94574   0.98308   0.89779   0.00000  Uiso   1.00
O1729  O     0.24185   0.18404   0.31320   0.00000  Uiso   1.00
O1730  O     0.24025   0.18368   0.06677   0.00000  Uiso   1.00
O1731  O     0.00768   0.01499   0.44325   0.00000  Uiso   1.00
O1732  O     0.00945   0.01368   0.19413   0.00000  Uiso   1.00
O1733  O     0.24125   0.18365   0.81514   0.00000  Uiso   1.00
O1734  O     0.00519   0.01458   0.69239   0.00000  Uiso   1.00
O1735  O     0.24218   0.18194   0.56577   0.00000  Uiso   1.00
O1736  O     0.01097   0.01460   0.94461   0.00000  Uiso   1.00
O1737  O     0.00864   0.35575   0.43880   0.00000  Uiso   1.00
O1738  O     0.01033   0.35584   0.19047   0.00000  Uiso   1.00
O1739  O     0.01093   0.35049   0.94224   0.00000  Uiso   1.00
O1740  O     0.00753   0.35288   0.68958   0.00000  Uiso   1.00
O1741  O     0.24183   0.51812   0.31373   0.00000  Uiso   1.00
O1742  O     0.24034   0.52069   0.06578   0.00000  Uiso   1.00
O1743  O     0.24453   0.51854   0.81641   0.00000  Uiso   1.00
O1744  O     0.23991   0.52051   0.56015   0.00000  Uiso   1.00
O1745  O     0.00981   0.68733   0.44636   0.00000  Uiso   1.00
O1746  O     0.01211   0.68480   0.19449   0.00000  Uiso   1.00
O1747  O     0.00838   0.68386   0.69540   0.00000  Uiso   1.00
O1748  O     0.00913   0.68489   0.94637   0.00000  Uiso   1.00
O1749  O     0.23802   0.85093   0.06940   0.00000  Uiso   1.00
O1750  O     0.24285   0.85499   0.31971   0.00000  Uiso   1.00
O1751  O     0.24217   0.85260   0.81911   0.00000  Uiso   1.00
O1752  O     0.24087   0.85373   0.56928   0.00000  Uiso   1.00
O1753  O     0.26559   0.14915   0.19067   0.00000  Uiso   1.00
O1754  O     0.25868   0.14524   0.43989   0.00000  Uiso   1.00
O1755  O     0.25836   0.14784   0.94046   0.00000  Uiso   1.00
O1756  O     0.26275   0.14481   0.69021   0.00000  Uiso   1.00
O1757  O     0.49548   0.31631   0.06836   0.00000  Uiso   1.00
O1758  O     0.49298   0.31395   0.31957   0.00000  Uiso   1.00
O1759  O     0.48920   0.31356   0.57296   0.00000  Uiso   1.00
O1760  O     0.49511   0.31463   0.82213   0.00000  Uiso   1.00
O1761  O     0.25977   0.48181   0.19003   0.00000  Uiso   1.00
O1762  O     0.26154   0.48101   0.43724   0.00000  Uiso   1.00
O1763  O     0.25694   0.48361   0.68876   0.00000  Uiso   1.00
O1764  O     0.25915   0.48075   0.94010   0.00000  Uiso   1.00
O1765  O     0.48849   0.65153   0.31372   0.00000  Uiso   1.00
O1766  O     0.48802   0.65074   0.06552   0.00000  Uiso   1.00
O1767  O     0.48862   0.64629   0.56470   0.00000  Uiso   1.00
O1768  O     0.49000   0.64764   0.81521   0.00000  Uiso   1.00
O1769  O     0.25872   0.81669   0.44363   0.00000  Uiso   1.00
O1770  O     0.48816   0.97848   0.06816   0.00000  Uiso   1.00
O1771  O     0.25557   0.81707   0.19375   0.00000  Uiso   1.00
O1772  O     0.49017   0.98000   0.31881   0.00000  Uiso   1.00
O1773  O     0.25526   0.81557   0.94292   0.00000  Uiso   1.00
O1774  O     0.26273   0.81539   0.69436   0.00000  Uiso   1.00
O1775  O     0.49378   0.98226   0.56863   0.00000  Uiso   1.00
O1776  O     0.49229   0.98110   0.81885   0.00000  Uiso   1.00
O1777  O     0.51264   0.01638   0.44434   0.00000  Uiso   1.00
O1778  O     0.74315   0.18075   0.06841   0.00000  Uiso   1.00
O1779  O     0.50597   0.01717   0.19278   0.00000  Uiso   1.00
O1780  O     0.74504   0.18768   0.31784   0.00000  Uiso   1.00
O1781  O     0.51098   0.01556   0.94345   0.00000  Uiso   1.00
O1782  O     0.74080   0.18544   0.56916   0.00000  Uiso   1.00
O1783  O     0.51335   0.01724   0.69379   0.00000  Uiso   1.00
O1784  O     0.74286   0.18472   0.82019   0.00000  Uiso   1.00
O1785  O     0.51312   0.35196   0.19545   0.00000  Uiso   1.00
O1786  O     0.51040   0.34880   0.44449   0.00000  Uiso   1.00
O1787  O     0.50983   0.35579   0.94365   0.00000  Uiso   1.00
O1788  O     0.51030   0.35333   0.69657   0.00000  Uiso   1.00
O1789  O     0.73921   0.52058   0.31744   0.00000  Uiso   1.00
O1790  O     0.73742   0.52106   0.06621   0.00000  Uiso   1.00
O1791  O     0.73761   0.51749   0.81554   0.00000  Uiso   1.00
O1792  O     0.74285   0.52457   0.56643   0.00000  Uiso   1.00
O1793  O     0.50972   0.68608   0.44078   0.00000  Uiso   1.00
O1794  O     0.50635   0.69005   0.18798   0.00000  Uiso   1.00
O1795  O     0.51106   0.68555   0.94072   0.00000  Uiso   1.00
O1796  O     0.51028   0.68495   0.68978   0.00000  Uiso   1.00
O1797  O     0.73992   0.85330   0.31773   0.00000  Uiso   1.00
O1798  O     0.73973   0.85080   0.06772   0.00000  Uiso   1.00
O1799  O     0.73862   0.84757   0.81592   0.00000  Uiso   1.00
O1800  O     0.73845   0.85066   0.56705   0.00000  Uiso   1.00
O1801  O     0.75948   0.14894   0.44257   0.00000  Uiso   1.00
O1802  O     0.76189   0.14933   0.19263   0.00000  Uiso   1.00
O1803  O     0.76044   0.14621   0.94369   0.00000  Uiso   1.00
O1804  O     0.75842   0.14717   0.69417   0.00000  Uiso   1.00
O1805  O     0.99211   0.31608   0.06529   0.00000  Uiso   1.00
O1806  O     0.99161   0.31832   0.31631   0.00000  Uiso   1.00
O1807  O     0.99058   0.31598   0.81654   0.00000  Uiso   1.00
O1808  O     0.99225   0.31505   0.56505   0.00000  Uiso   1.00
O1809  O     0.75888   0.48289   0.19129   0.00000  Uiso   1.00
O1810  O     0.75792   0.48428   0.44379   0.00000  Uiso   1.00
O1811  O     0.75947   0.48242   0.94147   0.00000  Uiso   1.00
O1812  O     0.76173   0.48481   0.69106   0.00000  Uiso   1.00
O1813  O     0.98841   0.65040   0.07062   0.00000  Uiso   1.00
O1814  O     0.98749   0.65161   0.32071   0.00000  Uiso   1.00
O1815  O     0.98563   0.65024   0.81988   0.00000  Uiso   1.00
O1816  O     0.98960   0.64716   0.57104   0.00000  Uiso   1.00
O1817  O     0.76057   0.81599   0.19357   0.00000  Uiso   1.00
O1818  O     0.75976   0.81512   0.44079   0.00000  Uiso   1.00
O1819  O     0.98675   0.98156   0.07075   0.00000  Uiso   1.00
O1820  O     0.98637   0.98090   0.31844   0.00000  Uiso   1.00
O1821  O     0.76170   0.81446   0.69238   0.00000  Uiso   1.00
O1822  O     0.99133   0.97967   0.81902   0.00000  Uiso   1.00
O1823  O     0.98758   0.97789   0.57007   0.00000  Uiso   1.00
O1824  O     0.75991   0.81349   0.94352   0.00000  Uiso   1.00
