data_final_Cl-Zn-SABVOH01
_audit_creation_date              2022-12-15
_audit_creation_method            'Materials Studio'
_symmetry_space_group_name_H-M    'P1'
_symmetry_Int_Tables_number       1
_symmetry_cell_setting            triclinic
loop_
_symmetry_equiv_pos_as_xyz
  x,y,z
_cell_length_a                    34.1376
_cell_length_b                    36.8937
_cell_length_c                    26.4147
_cell_angle_alpha                 90.0000
_cell_angle_beta                  90.0000
_cell_angle_gamma                 90.0000
loop_
_atom_site_label
_atom_site_type_symbol
_atom_site_fract_x
_atom_site_fract_y
_atom_site_fract_z
_atom_site_U_iso_or_equiv
_atom_site_adp_type
_atom_site_occupancy
Zn1    Zn    0.00499   0.00045   0.48894   0.00000  Uiso   1.00
Zn2    Zn    0.24817   0.16692   0.23293   0.00000  Uiso   1.00
Zn3    Zn    0.24808   0.16953   0.35984   0.00000  Uiso   1.00
Zn4    Zn    0.00151   0.00037   0.23870   0.00000  Uiso   1.00
Zn5    Zn    0.00177   0.00000   0.11189   0.00000  Uiso   1.00
Zn6    Zn    0.00115   0.00019   0.36349   0.00000  Uiso   1.00
Zn7    Zn    0.24999   0.16629   0.98540   0.00000  Uiso   1.00
Zn8    Zn    0.00489   0.00132   0.86132   0.00000  Uiso   1.00
Zn9    Zn    0.00136   0.00184   0.60814   0.00000  Uiso   1.00
Zn10   Zn    0.00149   0.00191   0.98623   0.00000  Uiso   1.00
Zn11   Zn    0.00110   0.33081   0.36338   0.00000  Uiso   1.00
Zn12   Zn    0.00105   0.33105   0.86389   0.00000  Uiso   1.00
Zn13   Zn    0.00071   0.33344   0.61066   0.00000  Uiso   1.00
Zn14   Zn    0.24842   0.50165   0.10563   0.00000  Uiso   1.00
Zn15   Zn    0.24767   0.49651   0.23012   0.00000  Uiso   1.00
Zn16   Zn    0.24667   0.49682   0.97682   0.00000  Uiso   1.00
Zn17   Zn    0.24883   0.50110   0.85566   0.00000  Uiso   1.00
Zn18   Zn    0.00066   0.66531   0.23281   0.00000  Uiso   1.00
Zn19   Zn    0.00088   0.66661   0.35765   0.00000  Uiso   1.00
Zn20   Zn    0.00167   0.66561   0.48281   0.00000  Uiso   1.00
Zn21   Zn    0.00103   0.66762   0.10749   0.00000  Uiso   1.00
Zn22   Zn    0.00120   0.66589   0.85721   0.00000  Uiso   1.00
Zn23   Zn    0.00036   0.66787   0.98381   0.00000  Uiso   1.00
Zn24   Zn    0.24988   0.83043   0.48630   0.00000  Uiso   1.00
Zn25   Zn    0.00323   0.99936   0.73522   0.00000  Uiso   1.00
Zn26   Zn    0.25062   0.17091   0.10708   0.00000  Uiso   1.00
Zn27   Zn    0.25191   0.16444   0.48528   0.00000  Uiso   1.00
Zn28   Zn    0.49834   0.00004   0.11032   0.00000  Uiso   1.00
Zn29   Zn    0.49859   0.00263   0.23547   0.00000  Uiso   1.00
Zn30   Zn    0.25026   0.17109   0.85800   0.00000  Uiso   1.00
Zn31   Zn    0.25459   0.16655   0.60882   0.00000  Uiso   1.00
Zn32   Zn    0.49733   0.00230   0.98177   0.00000  Uiso   1.00
Zn33   Zn    0.49828   0.00029   0.85797   0.00000  Uiso   1.00
Zn34   Zn    0.25029   0.16893   0.73279   0.00000  Uiso   1.00
Zn35   Zn    0.25102   0.50034   0.35514   0.00000  Uiso   1.00
Zn36   Zn    0.25438   0.50211   0.48349   0.00000  Uiso   1.00
Zn37   Zn    0.25178   0.49788   0.61182   0.00000  Uiso   1.00
Zn38   Zn    0.25044   0.49836   0.73145   0.00000  Uiso   1.00
Zn39   Zn    0.49948   0.99893   0.36186   0.00000  Uiso   1.00
Zn40   Zn    0.25077   0.83202   0.36353   0.00000  Uiso   1.00
Zn41   Zn    0.25162   0.83268   0.23713   0.00000  Uiso   1.00
Zn42   Zn    0.25075   0.83336   0.11118   0.00000  Uiso   1.00
Zn43   Zn    0.49710   0.99964   0.48560   0.00000  Uiso   1.00
Zn44   Zn    0.25024   0.83154   0.61226   0.00000  Uiso   1.00
Zn45   Zn    0.25223   0.83362   0.86088   0.00000  Uiso   1.00
Zn46   Zn    0.25012   0.83475   0.98713   0.00000  Uiso   1.00
Zn47   Zn    0.25082   0.83223   0.73819   0.00000  Uiso   1.00
Zn48   Zn    0.74856   0.16826   0.10865   0.00000  Uiso   1.00
Zn49   Zn    0.74756   0.16311   0.98477   0.00000  Uiso   1.00
Zn50   Zn    0.74903   0.16878   0.86047   0.00000  Uiso   1.00
Zn51   Zn    0.50358   0.00130   0.61231   0.00000  Uiso   1.00
Zn52   Zn    0.50074   0.00246   0.73394   0.00000  Uiso   1.00
Zn53   Zn    0.50320   0.33394   0.48358   0.00000  Uiso   1.00
Zn54   Zn    0.50153   0.33625   0.23581   0.00000  Uiso   1.00
Zn55   Zn    0.50175   0.33371   0.10846   0.00000  Uiso   1.00
Zn56   Zn    0.50316   0.33346   0.36046   0.00000  Uiso   1.00
Zn57   Zn    0.50058   0.33554   0.98381   0.00000  Uiso   1.00
Zn58   Zn    0.50185   0.33084   0.61031   0.00000  Uiso   1.00
Zn59   Zn    0.50113   0.33562   0.85773   0.00000  Uiso   1.00
Zn60   Zn    0.50214   0.33205   0.73589   0.00000  Uiso   1.00
Zn61   Zn    0.74825   0.50108   0.61114   0.00000  Uiso   1.00
Zn62   Zn    0.74925   0.50066   0.73515   0.00000  Uiso   1.00
Zn63   Zn    0.50413   0.66370   0.10997   0.00000  Uiso   1.00
Zn64   Zn    0.50341   0.66488   0.48288   0.00000  Uiso   1.00
Zn65   Zn    0.50500   0.66417   0.36104   0.00000  Uiso   1.00
Zn66   Zn    0.50109   0.66476   0.23539   0.00000  Uiso   1.00
Zn67   Zn    0.50006   0.66871   0.73489   0.00000  Uiso   1.00
Zn68   Zn    0.50222   0.66723   0.85991   0.00000  Uiso   1.00
Zn69   Zn    0.50265   0.66575   0.61095   0.00000  Uiso   1.00
Zn70   Zn    0.50015   0.66516   0.98357   0.00000  Uiso   1.00
Zn71   Zn    0.74900   0.83316   0.22787   0.00000  Uiso   1.00
Zn72   Zn    0.75138   0.16295   0.48276   0.00000  Uiso   1.00
Zn73   Zn    0.75240   0.16675   0.35751   0.00000  Uiso   1.00
Zn74   Zn    0.75097   0.16733   0.23514   0.00000  Uiso   1.00
Zn75   Zn    0.75091   0.16825   0.73239   0.00000  Uiso   1.00
Zn76   Zn    0.75237   0.17151   0.60752   0.00000  Uiso   1.00
Zn77   Zn    0.99976   0.33125   0.48731   0.00000  Uiso   1.00
Zn78   Zn    0.99411   0.33097   0.11184   0.00000  Uiso   1.00
Zn79   Zn    0.99819   0.33116   0.23735   0.00000  Uiso   1.00
Zn80   Zn    0.99597   0.33162   0.98794   0.00000  Uiso   1.00
Zn81   Zn    0.99930   0.33025   0.73673   0.00000  Uiso   1.00
Zn82   Zn    0.75145   0.50491   0.36102   0.00000  Uiso   1.00
Zn83   Zn    0.75360   0.50082   0.23600   0.00000  Uiso   1.00
Zn84   Zn    0.75316   0.50217   0.10893   0.00000  Uiso   1.00
Zn85   Zn    0.75066   0.49826   0.48688   0.00000  Uiso   1.00
Zn86   Zn    0.75369   0.49815   0.98470   0.00000  Uiso   1.00
Zn87   Zn    0.75230   0.49786   0.86007   0.00000  Uiso   1.00
Zn88   Zn    0.99990   0.66622   0.73162   0.00000  Uiso   1.00
Zn89   Zn    0.99913   0.66621   0.60848   0.00000  Uiso   1.00
Zn90   Zn    0.75080   0.84053   0.35275   0.00000  Uiso   1.00
Zn91   Zn    0.75208   0.83293   0.47783   0.00000  Uiso   1.00
Zn92   Zn    0.75044   0.83526   0.10419   0.00000  Uiso   1.00
Zn93   Zn    0.75361   0.83824   0.85416   0.00000  Uiso   1.00
Zn94   Zn    0.75147   0.83815   0.60272   0.00000  Uiso   1.00
Zn95   Zn    0.75158   0.83629   0.97843   0.00000  Uiso   1.00
Zn96   Zn    0.75110   0.83065   0.72897   0.00000  Uiso   1.00
Cl97   Cl    0.13551   0.19344   0.32852   0.00000  Uiso   1.00
Cl98   Cl    0.11785   0.02848   0.20389   0.00000  Uiso   1.00
Cl99   Cl    0.12274   0.02309   0.46199   0.00000  Uiso   1.00
Cl100  Cl    0.13873   0.19539   0.06936   0.00000  Uiso   1.00
Cl101  Cl    0.11585   0.02989   0.70230   0.00000  Uiso   1.00
Cl102  Cl    0.10871   0.03253   0.94742   0.00000  Uiso   1.00
Cl103  Cl    0.13803   0.19665   0.83455   0.00000  Uiso   1.00
Cl104  Cl    0.13136   0.19385   0.57031   0.00000  Uiso   1.00
Cl105  Cl    0.12065   0.35485   0.20972   0.00000  Uiso   1.00
Cl106  Cl    0.12066   0.35023   0.46543   0.00000  Uiso   1.00
Cl107  Cl    0.11890   0.34883   0.71774   0.00000  Uiso   1.00
Cl108  Cl    0.10441   0.36445   0.95582   0.00000  Uiso   1.00
Cl109  Cl    0.13891   0.52564   0.07169   0.00000  Uiso   1.00
Cl110  Cl    0.13420   0.52171   0.32884   0.00000  Uiso   1.00
Cl111  Cl    0.13776   0.53564   0.56648   0.00000  Uiso   1.00
Cl112  Cl    0.13445   0.52964   0.82413   0.00000  Uiso   1.00
Cl113  Cl    0.11195   0.69750   0.19821   0.00000  Uiso   1.00
Cl114  Cl    0.11670   0.69915   0.45517   0.00000  Uiso   1.00
Cl115  Cl    0.11502   0.70136   0.69402   0.00000  Uiso   1.00
Cl116  Cl    0.11006   0.69720   0.94885   0.00000  Uiso   1.00
Cl117  Cl    0.13556   0.85961   0.07634   0.00000  Uiso   1.00
Cl118  Cl    0.12725   0.84791   0.33726   0.00000  Uiso   1.00
Cl119  Cl    0.13552   0.86068   0.57448   0.00000  Uiso   1.00
Cl120  Cl    0.13138   0.85670   0.82686   0.00000  Uiso   1.00
Cl121  Cl    0.36897   0.14468   0.20570   0.00000  Uiso   1.00
Cl122  Cl    0.36484   0.13891   0.45073   0.00000  Uiso   1.00
Cl123  Cl    0.36711   0.14765   0.70925   0.00000  Uiso   1.00
Cl124  Cl    0.36488   0.14371   0.94863   0.00000  Uiso   1.00
Cl125  Cl    0.38898   0.29769   0.07192   0.00000  Uiso   1.00
Cl126  Cl    0.38893   0.30709   0.32262   0.00000  Uiso   1.00
Cl127  Cl    0.38183   0.30834   0.57822   0.00000  Uiso   1.00
Cl128  Cl    0.38234   0.31430   0.83390   0.00000  Uiso   1.00
Cl129  Cl    0.36196   0.46361   0.19833   0.00000  Uiso   1.00
Cl130  Cl    0.36645   0.47060   0.45604   0.00000  Uiso   1.00
Cl131  Cl    0.36360   0.47594   0.70252   0.00000  Uiso   1.00
Cl132  Cl    0.36271   0.47227   0.95588   0.00000  Uiso   1.00
Cl133  Cl    0.38558   0.63821   0.07329   0.00000  Uiso   1.00
Cl134  Cl    0.37957   0.64943   0.32769   0.00000  Uiso   1.00
Cl135  Cl    0.38459   0.63183   0.57131   0.00000  Uiso   1.00
Cl136  Cl    0.38418   0.64461   0.83263   0.00000  Uiso   1.00
Cl137  Cl    0.35669   0.78715   0.68983   0.00000  Uiso   1.00
Cl138  Cl    0.36177   0.80538   0.45798   0.00000  Uiso   1.00
Cl139  Cl    0.38385   0.97922   0.08087   0.00000  Uiso   1.00
Cl140  Cl    0.38613   0.96935   0.32452   0.00000  Uiso   1.00
Cl141  Cl    0.35981   0.80467   0.20440   0.00000  Uiso   1.00
Cl142  Cl    0.38932   0.96449   0.57086   0.00000  Uiso   1.00
Cl143  Cl    0.38301   0.97588   0.83423   0.00000  Uiso   1.00
Cl144  Cl    0.36366   0.80252   0.95679   0.00000  Uiso   1.00
Cl145  Cl    0.61032   0.02699   0.20956   0.00000  Uiso   1.00
Cl146  Cl    0.62087   0.02383   0.45238   0.00000  Uiso   1.00
Cl147  Cl    0.63458   0.18238   0.32632   0.00000  Uiso   1.00
Cl148  Cl    0.62604   0.18567   0.08577   0.00000  Uiso   1.00
Cl149  Cl    0.61589   0.02559   0.70160   0.00000  Uiso   1.00
Cl150  Cl    0.61329   0.03412   0.94389   0.00000  Uiso   1.00
Cl151  Cl    0.63048   0.18842   0.57707   0.00000  Uiso   1.00
Cl152  Cl    0.63022   0.19474   0.82869   0.00000  Uiso   1.00
Cl153  Cl    0.61719   0.36523   0.20573   0.00000  Uiso   1.00
Cl154  Cl    0.61187   0.35982   0.45901   0.00000  Uiso   1.00
Cl155  Cl    0.60941   0.36345   0.70234   0.00000  Uiso   1.00
Cl156  Cl    0.60793   0.37160   0.95128   0.00000  Uiso   1.00
Cl157  Cl    0.63859   0.52699   0.07357   0.00000  Uiso   1.00
Cl158  Cl    0.62995   0.51334   0.33851   0.00000  Uiso   1.00
Cl159  Cl    0.63585   0.53149   0.57996   0.00000  Uiso   1.00
Cl160  Cl    0.64122   0.52704   0.82763   0.00000  Uiso   1.00
Cl161  Cl    0.61569   0.69139   0.20336   0.00000  Uiso   1.00
Cl162  Cl    0.61638   0.68848   0.45964   0.00000  Uiso   1.00
Cl163  Cl    0.61982   0.69526   0.70312   0.00000  Uiso   1.00
Cl164  Cl    0.60884   0.69736   0.94267   0.00000  Uiso   1.00
Cl165  Cl    0.63342   0.86510   0.07274   0.00000  Uiso   1.00
Cl166  Cl    0.64011   0.86957   0.31933   0.00000  Uiso   1.00
Cl167  Cl    0.64001   0.86858   0.57863   0.00000  Uiso   1.00
Cl168  Cl    0.62887   0.85491   0.82351   0.00000  Uiso   1.00
Cl169  Cl    0.86389   0.13230   0.19483   0.00000  Uiso   1.00
Cl170  Cl    0.86044   0.13531   0.44933   0.00000  Uiso   1.00
Cl171  Cl    0.86568   0.14192   0.70202   0.00000  Uiso   1.00
Cl172  Cl    0.86720   0.13968   0.95734   0.00000  Uiso   1.00
Cl173  Cl    0.88990   0.29763   0.07378   0.00000  Uiso   1.00
Cl174  Cl    0.88296   0.30995   0.33422   0.00000  Uiso   1.00
Cl175  Cl    0.88323   0.31185   0.57994   0.00000  Uiso   1.00
Cl176  Cl    0.88460   0.30630   0.83192   0.00000  Uiso   1.00
Cl177  Cl    0.86227   0.47663   0.20568   0.00000  Uiso   1.00
Cl178  Cl    0.85739   0.46186   0.45495   0.00000  Uiso   1.00
Cl179  Cl    0.86125   0.46806   0.70411   0.00000  Uiso   1.00
Cl180  Cl    0.85884   0.46154   0.94438   0.00000  Uiso   1.00
Cl181  Cl    0.89069   0.63336   0.06667   0.00000  Uiso   1.00
Cl182  Cl    0.88183   0.63856   0.32713   0.00000  Uiso   1.00
Cl183  Cl    0.84491   0.78105   0.18694   0.00000  Uiso   1.00
Cl184  Cl    0.88115   0.64254   0.57406   0.00000  Uiso   1.00
Cl185  Cl    0.88593   0.63488   0.82731   0.00000  Uiso   1.00
Cl186  Cl    0.86771   0.80942   0.45431   0.00000  Uiso   1.00
Cl187  Cl    0.88443   0.97594   0.08355   0.00000  Uiso   1.00
Cl188  Cl    0.88334   0.97704   0.33685   0.00000  Uiso   1.00
Cl189  Cl    0.87918   0.97867   0.57828   0.00000  Uiso   1.00
Cl190  Cl    0.89127   0.97186   0.82387   0.00000  Uiso   1.00
Cl191  Cl    0.86633   0.80389   0.69914   0.00000  Uiso   1.00
Cl192  Cl    0.86522   0.81034   0.95717   0.00000  Uiso   1.00
H193   H     0.08737   0.08011   0.12614   0.00000  Uiso   1.00
H194   H     0.15332   0.10739   0.12800   0.00000  Uiso   1.00
H195   H     0.18107   0.07657   0.22890   0.00000  Uiso   1.00
H196   H     0.08759   0.07829   0.36978   0.00000  Uiso   1.00
H197   H     0.14799   0.11318   0.37510   0.00000  Uiso   1.00
H198   H     0.18358   0.06555   0.48618   0.00000  Uiso   1.00
H199   H     0.24963   0.11970   0.42065   0.00000  Uiso   1.00
H200   H     0.00350   0.04419   0.42526   0.00000  Uiso   1.00
H201   H     0.08868   0.08766   0.62181   0.00000  Uiso   1.00
H202   H     0.14816   0.12068   0.61947   0.00000  Uiso   1.00
H203   H     0.17600   0.07839   0.72458   0.00000  Uiso   1.00
H204   H     0.08665   0.07923   0.87045   0.00000  Uiso   1.00
H205   H     0.14362   0.11860   0.87062   0.00000  Uiso   1.00
H206   H     0.17172   0.08044   0.97140   0.00000  Uiso   1.00
H207   H     0.24415   0.12183   0.67298   0.00000  Uiso   1.00
H208   H     0.24265   0.12103   0.91680   0.00000  Uiso   1.00
H209   H     0.00234   0.04863   0.67301   0.00000  Uiso   1.00
H210   H     0.07597   0.24399   0.09166   0.00000  Uiso   1.00
H211   H     0.15871   0.23629   0.24252   0.00000  Uiso   1.00
H212   H     0.09825   0.26985   0.24787   0.00000  Uiso   1.00
H213   H     0.06960   0.23160   0.35850   0.00000  Uiso   1.00
H214   H     0.16294   0.24409   0.49698   0.00000  Uiso   1.00
H215   H     0.10702   0.28336   0.01021   0.00000  Uiso   1.00
H216   H     0.10279   0.28333   0.49693   0.00000  Uiso   1.00
H217   H     0.22949   0.21197   0.29773   0.00000  Uiso   1.00
H218   H     0.01001   0.37408   0.17246   0.00000  Uiso   1.00
H219   H     0.07218   0.23936   0.59374   0.00000  Uiso   1.00
H220   H     0.16030   0.24316   0.74581   0.00000  Uiso   1.00
H221   H     0.09525   0.27267   0.74574   0.00000  Uiso   1.00
H222   H     0.07182   0.24105   0.86252   0.00000  Uiso   1.00
H223   H     0.22378   0.20495   0.79458   0.00000  Uiso   1.00
H224   H     0.01563   0.37330   0.92749   0.00000  Uiso   1.00
H225   H     0.17149   0.25310   0.99962   0.00000  Uiso   1.00
H226   H     0.14112   0.44988   0.12592   0.00000  Uiso   1.00
H227   H     0.07669   0.57189   0.08934   0.00000  Uiso   1.00
H228   H     0.08708   0.40757   0.13062   0.00000  Uiso   1.00
H229   H     0.06921   0.56489   0.35459   0.00000  Uiso   1.00
H230   H     0.14402   0.44885   0.37457   0.00000  Uiso   1.00
H231   H     0.15409   0.56962   0.25068   0.00000  Uiso   1.00
H232   H     0.17963   0.40266   0.47596   0.00000  Uiso   1.00
H233   H     0.18004   0.40494   0.23187   0.00000  Uiso   1.00
H234   H     0.08346   0.41599   0.37284   0.00000  Uiso   1.00
H235   H     0.23335   0.54088   0.28704   0.00000  Uiso   1.00
H236   H     0.16683   0.58563   0.48952   0.00000  Uiso   1.00
H237   H     0.23442   0.45676   0.16695   0.00000  Uiso   1.00
H238   H     0.23955   0.54467   0.03856   0.00000  Uiso   1.00
H239   H     0.09447   0.59847   0.25164   0.00000  Uiso   1.00
H240   H     0.07168   0.56926   0.85193   0.00000  Uiso   1.00
H241   H     0.14666   0.45462   0.61490   0.00000  Uiso   1.00
H242   H     0.08335   0.41737   0.86872   0.00000  Uiso   1.00
H243   H     0.17457   0.40342   0.73015   0.00000  Uiso   1.00
H244   H     0.14548   0.45435   0.86897   0.00000  Uiso   1.00
H245   H     0.07789   0.42790   0.61172   0.00000  Uiso   1.00
H246   H     0.16344   0.57688   0.74145   0.00000  Uiso   1.00
H247   H     0.07614   0.57591   0.59293   0.00000  Uiso   1.00
H248   H     0.24664   0.54314   0.55196   0.00000  Uiso   1.00
H249   H     0.23073   0.54087   0.79148   0.00000  Uiso   1.00
H250   H     0.17243   0.40764   0.97802   0.00000  Uiso   1.00
H251   H     0.23075   0.45431   0.91295   0.00000  Uiso   1.00
H252   H     0.16920   0.57986   0.99243   0.00000  Uiso   1.00
H253   H     0.24094   0.45441   0.67395   0.00000  Uiso   1.00
H254   H     0.08831   0.74448   0.12121   0.00000  Uiso   1.00
H255   H     0.17651   0.74127   0.22611   0.00000  Uiso   1.00
H256   H     0.08541   0.74823   0.37385   0.00000  Uiso   1.00
H257   H     0.17138   0.74840   0.48165   0.00000  Uiso   1.00
H258   H     0.14766   0.77541   0.37622   0.00000  Uiso   1.00
H259   H     0.15097   0.77194   0.12805   0.00000  Uiso   1.00
H260   H     0.10287   0.61433   0.49460   0.00000  Uiso   1.00
H261   H     0.24775   0.78600   0.42491   0.00000  Uiso   1.00
H262   H     0.24132   0.78890   0.17225   0.00000  Uiso   1.00
H263   H     0.07838   0.74804   0.61996   0.00000  Uiso   1.00
H264   H     0.13914   0.78340   0.62891   0.00000  Uiso   1.00
H265   H     0.17598   0.74806   0.72325   0.00000  Uiso   1.00
H266   H     0.08847   0.74155   0.87083   0.00000  Uiso   1.00
H267   H     0.15084   0.77253   0.87965   0.00000  Uiso   1.00
H268   H     0.10438   0.61010   0.74864   0.00000  Uiso   1.00
H269   H     0.24299   0.78611   0.67888   0.00000  Uiso   1.00
H270   H     0.17040   0.74705   0.96682   0.00000  Uiso   1.00
H271   H     0.11111   0.62205   0.98906   0.00000  Uiso   1.00
H272   H     0.07870   0.91461   0.09381   0.00000  Uiso   1.00
H273   H     0.14929   0.89391   0.25093   0.00000  Uiso   1.00
H274   H     0.08848   0.92397   0.25597   0.00000  Uiso   1.00
H275   H     0.06730   0.89644   0.36125   0.00000  Uiso   1.00
H276   H     0.23802   0.87575   0.30084   0.00000  Uiso   1.00
H277   H     0.16530   0.91502   0.49352   0.00000  Uiso   1.00
H278   H     0.23794   0.87722   0.05061   0.00000  Uiso   1.00
H279   H     0.10429   0.94806   0.49377   0.00000  Uiso   1.00
H280   H     0.07658   0.90578   0.59533   0.00000  Uiso   1.00
H281   H     0.16274   0.90819   0.74856   0.00000  Uiso   1.00
H282   H     0.10266   0.94440   0.74888   0.00000  Uiso   1.00
H283   H     0.07201   0.90138   0.85167   0.00000  Uiso   1.00
H284   H     0.23906   0.87601   0.79488   0.00000  Uiso   1.00
H285   H     0.16899   0.91470   0.98885   0.00000  Uiso   1.00
H286   H     0.24396   0.87778   0.54844   0.00000  Uiso   1.00
H287   H     0.11021   0.94966   0.99520   0.00000  Uiso   1.00
H288   H     0.26850   0.12767   0.16540   0.00000  Uiso   1.00
H289   H     0.43185   0.09584   0.22935   0.00000  Uiso   1.00
H290   H     0.34038   0.09768   0.12291   0.00000  Uiso   1.00
H291   H     0.39925   0.06667   0.12982   0.00000  Uiso   1.00
H292   H     0.33014   0.08253   0.36529   0.00000  Uiso   1.00
H293   H     0.39321   0.05095   0.37151   0.00000  Uiso   1.00
H294   H     0.42509   0.09528   0.47131   0.00000  Uiso   1.00
H295   H     0.42489   0.09366   0.72486   0.00000  Uiso   1.00
H296   H     0.33578   0.08176   0.61954   0.00000  Uiso   1.00
H297   H     0.40152   0.05635   0.62087   0.00000  Uiso   1.00
H298   H     0.33563   0.08789   0.87252   0.00000  Uiso   1.00
H299   H     0.39462   0.05573   0.87680   0.00000  Uiso   1.00
H300   H     0.42316   0.09565   0.97328   0.00000  Uiso   1.00
H301   H     0.41508   0.25662   0.24567   0.00000  Uiso   1.00
H302   H     0.32454   0.26632   0.10256   0.00000  Uiso   1.00
H303   H     0.38567   0.37638   0.11966   0.00000  Uiso   1.00
H304   H     0.33039   0.25964   0.33993   0.00000  Uiso   1.00
H305   H     0.39254   0.38417   0.37170   0.00000  Uiso   1.00
H306   H     0.49353   0.29029   0.04108   0.00000  Uiso   1.00
H307   H     0.48422   0.29436   0.29924   0.00000  Uiso   1.00
H308   H     0.49362   0.38335   0.17073   0.00000  Uiso   1.00
H309   H     0.35401   0.22672   0.25352   0.00000  Uiso   1.00
H310   H     0.49691   0.37790   0.42315   0.00000  Uiso   1.00
H311   H     0.25181   0.21700   0.04217   0.00000  Uiso   1.00
H312   H     0.34734   0.23292   0.49834   0.00000  Uiso   1.00
H313   H     0.41152   0.25906   0.74552   0.00000  Uiso   1.00
H314   H     0.32562   0.25921   0.59722   0.00000  Uiso   1.00
H315   H     0.32077   0.26538   0.85351   0.00000  Uiso   1.00
H316   H     0.40812   0.26229   0.50039   0.00000  Uiso   1.00
H317   H     0.39210   0.38504   0.62614   0.00000  Uiso   1.00
H318   H     0.35286   0.22519   0.74793   0.00000  Uiso   1.00
H319   H     0.40020   0.39039   0.87395   0.00000  Uiso   1.00
H320   H     0.41745   0.25624   0.99580   0.00000  Uiso   1.00
H321   H     0.48552   0.29201   0.79748   0.00000  Uiso   1.00
H322   H     0.25100   0.21448   0.55072   0.00000  Uiso   1.00
H323   H     0.35679   0.21866   0.99967   0.00000  Uiso   1.00
H324   H     0.48702   0.37573   0.91627   0.00000  Uiso   1.00
H325   H     0.49641   0.28790   0.54661   0.00000  Uiso   1.00
H326   H     0.35342   0.54679   0.24097   0.00000  Uiso   1.00
H327   H     0.32261   0.40937   0.11205   0.00000  Uiso   1.00
H328   H     0.42182   0.41933   0.47538   0.00000  Uiso   1.00
H329   H     0.32851   0.41017   0.36219   0.00000  Uiso   1.00
H330   H     0.42454   0.42114   0.22545   0.00000  Uiso   1.00
H331   H     0.31965   0.59616   0.10075   0.00000  Uiso   1.00
H332   H     0.35803   0.54957   0.48503   0.00000  Uiso   1.00
H333   H     0.41662   0.58780   0.48562   0.00000  Uiso   1.00
H334   H     0.41177   0.58527   0.24045   0.00000  Uiso   1.00
H335   H     0.25109   0.45553   0.42100   0.00000  Uiso   1.00
H336   H     0.32365   0.59634   0.34686   0.00000  Uiso   1.00
H337   H     0.35393   0.54831   0.99345   0.00000  Uiso   1.00
H338   H     0.34765   0.56134   0.75447   0.00000  Uiso   1.00
H339   H     0.40812   0.59604   0.75146   0.00000  Uiso   1.00
H340   H     0.42951   0.43266   0.72202   0.00000  Uiso   1.00
H341   H     0.33316   0.41792   0.86652   0.00000  Uiso   1.00
H342   H     0.42252   0.41641   0.97145   0.00000  Uiso   1.00
H343   H     0.33591   0.41965   0.62409   0.00000  Uiso   1.00
H344   H     0.32525   0.59615   0.84809   0.00000  Uiso   1.00
H345   H     0.41439   0.57830   0.99162   0.00000  Uiso   1.00
H346   H     0.32378   0.58923   0.60066   0.00000  Uiso   1.00
H347   H     0.42167   0.75016   0.22313   0.00000  Uiso   1.00
H348   H     0.33568   0.75089   0.12785   0.00000  Uiso   1.00
H349   H     0.39670   0.71676   0.12677   0.00000  Uiso   1.00
H350   H     0.34229   0.75860   0.37936   0.00000  Uiso   1.00
H351   H     0.40528   0.72536   0.37852   0.00000  Uiso   1.00
H352   H     0.48097   0.62778   0.29675   0.00000  Uiso   1.00
H353   H     0.49283   0.61832   0.04701   0.00000  Uiso   1.00
H354   H     0.41971   0.75077   0.47077   0.00000  Uiso   1.00
H355   H     0.49712   0.70945   0.17472   0.00000  Uiso   1.00
H356   H     0.42775   0.75642   0.71963   0.00000  Uiso   1.00
H357   H     0.32520   0.73538   0.61509   0.00000  Uiso   1.00
H358   H     0.39116   0.70330   0.61485   0.00000  Uiso   1.00
H359   H     0.34332   0.76495   0.87339   0.00000  Uiso   1.00
H360   H     0.40952   0.73495   0.87888   0.00000  Uiso   1.00
H361   H     0.49072   0.62162   0.54639   0.00000  Uiso   1.00
H362   H     0.42648   0.75456   0.97733   0.00000  Uiso   1.00
H363   H     0.48409   0.71129   0.67204   0.00000  Uiso   1.00
H364   H     0.49978   0.71193   0.92252   0.00000  Uiso   1.00
H365   H     0.26387   0.78775   0.92198   0.00000  Uiso   1.00
H366   H     0.41145   0.91897   0.24461   0.00000  Uiso   1.00
H367   H     0.35073   0.88846   0.24488   0.00000  Uiso   1.00
H368   H     0.31431   0.93773   0.10756   0.00000  Uiso   1.00
H369   H     0.35017   0.88564   0.49341   0.00000  Uiso   1.00
H370   H     0.32157   0.92676   0.34537   0.00000  Uiso   1.00
H371   H     0.41251   0.91167   0.48853   0.00000  Uiso   1.00
H372   H     0.48466   0.95429   0.04209   0.00000  Uiso   1.00
H373   H     0.41749   0.92034   0.74194   0.00000  Uiso   1.00
H374   H     0.35510   0.88698   0.74833   0.00000  Uiso   1.00
H375   H     0.33065   0.91484   0.59358   0.00000  Uiso   1.00
H376   H     0.31811   0.93580   0.86094   0.00000  Uiso   1.00
H377   H     0.41787   0.91371   0.99729   0.00000  Uiso   1.00
H378   H     0.49667   0.95376   0.79569   0.00000  Uiso   1.00
H379   H     0.35475   0.88497   0.99921   0.00000  Uiso   1.00
H380   H     0.50920   0.04427   0.42287   0.00000  Uiso   1.00
H381   H     0.57911   0.08665   0.11586   0.00000  Uiso   1.00
H382   H     0.64491   0.11170   0.13057   0.00000  Uiso   1.00
H383   H     0.67782   0.07460   0.23117   0.00000  Uiso   1.00
H384   H     0.58401   0.08568   0.37597   0.00000  Uiso   1.00
H385   H     0.64976   0.11393   0.37705   0.00000  Uiso   1.00
H386   H     0.67858   0.07508   0.47490   0.00000  Uiso   1.00
H387   H     0.52511   0.04002   0.17219   0.00000  Uiso   1.00
H388   H     0.74750   0.12160   0.16786   0.00000  Uiso   1.00
H389   H     0.58204   0.08265   0.61403   0.00000  Uiso   1.00
H390   H     0.64254   0.11490   0.62181   0.00000  Uiso   1.00
H391   H     0.67997   0.07138   0.72376   0.00000  Uiso   1.00
H392   H     0.58105   0.08562   0.86194   0.00000  Uiso   1.00
H393   H     0.64129   0.11866   0.86790   0.00000  Uiso   1.00
H394   H     0.67866   0.06767   0.98118   0.00000  Uiso   1.00
H395   H     0.50349   0.04618   0.91977   0.00000  Uiso   1.00
H396   H     0.50848   0.04737   0.67532   0.00000  Uiso   1.00
H397   H     0.72876   0.12350   0.92043   0.00000  Uiso   1.00
H398   H     0.57116   0.24040   0.10110   0.00000  Uiso   1.00
H399   H     0.66104   0.23708   0.25234   0.00000  Uiso   1.00
H400   H     0.59988   0.28012   0.24912   0.00000  Uiso   1.00
H401   H     0.65972   0.23530   0.49657   0.00000  Uiso   1.00
H402   H     0.56963   0.23358   0.34986   0.00000  Uiso   1.00
H403   H     0.74216   0.21028   0.29834   0.00000  Uiso   1.00
H404   H     0.72166   0.20711   0.03907   0.00000  Uiso   1.00
H405   H     0.57408   0.24171   0.59606   0.00000  Uiso   1.00
H406   H     0.65424   0.23478   0.74917   0.00000  Uiso   1.00
H407   H     0.59680   0.27081   0.74906   0.00000  Uiso   1.00
H408   H     0.65656   0.23819   0.99739   0.00000  Uiso   1.00
H409   H     0.57257   0.24693   0.84692   0.00000  Uiso   1.00
H410   H     0.60044   0.27935   0.99585   0.00000  Uiso   1.00
H411   H     0.73584   0.21114   0.79394   0.00000  Uiso   1.00
H412   H     0.73750   0.21028   0.54143   0.00000  Uiso   1.00
H413   H     0.50048   0.37592   0.66858   0.00000  Uiso   1.00
H414   H     0.59930   0.26658   0.50020   0.00000  Uiso   1.00
H415   H     0.64566   0.44850   0.12766   0.00000  Uiso   1.00
H416   H     0.59243   0.59740   0.25431   0.00000  Uiso   1.00
H417   H     0.65536   0.43898   0.38112   0.00000  Uiso   1.00
H418   H     0.59147   0.40899   0.37825   0.00000  Uiso   1.00
H419   H     0.67725   0.41266   0.22553   0.00000  Uiso   1.00
H420   H     0.58221   0.42343   0.12238   0.00000  Uiso   1.00
H421   H     0.56313   0.55548   0.36207   0.00000  Uiso   1.00
H422   H     0.65355   0.56250   0.25406   0.00000  Uiso   1.00
H423   H     0.57663   0.57135   0.09773   0.00000  Uiso   1.00
H424   H     0.73659   0.54312   0.29609   0.00000  Uiso   1.00
H425   H     0.73431   0.54080   0.04614   0.00000  Uiso   1.00
H426   H     0.67622   0.40194   0.48118   0.00000  Uiso   1.00
H427   H     0.64631   0.45149   0.62230   0.00000  Uiso   1.00
H428   H     0.66981   0.42008   0.96999   0.00000  Uiso   1.00
H429   H     0.56913   0.56930   0.61240   0.00000  Uiso   1.00
H430   H     0.65195   0.44081   0.87467   0.00000  Uiso   1.00
H431   H     0.57951   0.57528   0.84744   0.00000  Uiso   1.00
H432   H     0.66752   0.58708   0.74774   0.00000  Uiso   1.00
H433   H     0.67068   0.41698   0.71990   0.00000  Uiso   1.00
H434   H     0.58596   0.41685   0.87513   0.00000  Uiso   1.00
H435   H     0.58480   0.42265   0.62113   0.00000  Uiso   1.00
H436   H     0.73439   0.54511   0.54528   0.00000  Uiso   1.00
H437   H     0.66490   0.57576   0.99976   0.00000  Uiso   1.00
H438   H     0.73682   0.45454   0.67314   0.00000  Uiso   1.00
H439   H     0.74535   0.54513   0.80192   0.00000  Uiso   1.00
H440   H     0.66042   0.57381   0.50035   0.00000  Uiso   1.00
H441   H     0.65004   0.77754   0.37064   0.00000  Uiso   1.00
H442   H     0.58048   0.75482   0.10949   0.00000  Uiso   1.00
H443   H     0.66885   0.74782   0.21660   0.00000  Uiso   1.00
H444   H     0.58427   0.74715   0.36837   0.00000  Uiso   1.00
H445   H     0.74964   0.79064   0.40721   0.00000  Uiso   1.00
H446   H     0.64321   0.78274   0.11627   0.00000  Uiso   1.00
H447   H     0.67859   0.73946   0.47426   0.00000  Uiso   1.00
H448   H     0.50343   0.71094   0.41750   0.00000  Uiso   1.00
H449   H     0.74360   0.79046   0.16608   0.00000  Uiso   1.00
H450   H     0.64615   0.78386   0.61813   0.00000  Uiso   1.00
H451   H     0.58767   0.75064   0.61937   0.00000  Uiso   1.00
H452   H     0.67865   0.73826   0.72299   0.00000  Uiso   1.00
H453   H     0.59168   0.74652   0.87409   0.00000  Uiso   1.00
H454   H     0.66794   0.75134   0.96059   0.00000  Uiso   1.00
H455   H     0.65116   0.78032   0.87195   0.00000  Uiso   1.00
H456   H     0.60255   0.61063   0.50049   0.00000  Uiso   1.00
H457   H     0.60419   0.61671   0.75200   0.00000  Uiso   1.00
H458   H     0.50165   0.61857   0.79855   0.00000  Uiso   1.00
H459   H     0.60786   0.61607   0.99727   0.00000  Uiso   1.00
H460   H     0.57418   0.91203   0.09605   0.00000  Uiso   1.00
H461   H     0.66591   0.91058   0.23764   0.00000  Uiso   1.00
H462   H     0.61059   0.95121   0.24442   0.00000  Uiso   1.00
H463   H     0.74897   0.88521   0.28647   0.00000  Uiso   1.00
H464   H     0.58091   0.91676   0.34172   0.00000  Uiso   1.00
H465   H     0.66188   0.90795   0.49583   0.00000  Uiso   1.00
H466   H     0.73364   0.87640   0.04170   0.00000  Uiso   1.00
H467   H     0.50882   0.95412   0.29311   0.00000  Uiso   1.00
H468   H     0.58162   0.92116   0.60367   0.00000  Uiso   1.00
H469   H     0.67217   0.91331   0.74591   0.00000  Uiso   1.00
H470   H     0.60838   0.94386   0.75759   0.00000  Uiso   1.00
H471   H     0.57047   0.90606   0.84506   0.00000  Uiso   1.00
H472   H     0.74059   0.87853   0.78721   0.00000  Uiso   1.00
H473   H     0.73793   0.88074   0.53944   0.00000  Uiso   1.00
H474   H     0.51852   0.96139   0.54495   0.00000  Uiso   1.00
H475   H     0.60472   0.95047   0.99090   0.00000  Uiso   1.00
H476   H     0.66345   0.91246   0.98971   0.00000  Uiso   1.00
H477   H     0.59851   0.93890   0.50038   0.00000  Uiso   1.00
H478   H     0.92627   0.08816   0.22290   0.00000  Uiso   1.00
H479   H     0.82820   0.08150   0.11590   0.00000  Uiso   1.00
H480   H     0.88852   0.04856   0.12528   0.00000  Uiso   1.00
H481   H     0.83280   0.08282   0.36594   0.00000  Uiso   1.00
H482   H     0.89467   0.05146   0.36963   0.00000  Uiso   1.00
H483   H     0.92895   0.09363   0.47423   0.00000  Uiso   1.00
H484   H     0.99315   0.04295   0.17714   0.00000  Uiso   1.00
H485   H     0.75833   0.11857   0.42119   0.00000  Uiso   1.00
H486   H     0.92208   0.08998   0.72130   0.00000  Uiso   1.00
H487   H     0.84002   0.08931   0.62199   0.00000  Uiso   1.00
H488   H     0.90525   0.06116   0.63005   0.00000  Uiso   1.00
H489   H     0.92206   0.08126   0.97290   0.00000  Uiso   1.00
H490   H     0.83142   0.08136   0.86384   0.00000  Uiso   1.00
H491   H     0.89009   0.05473   0.87394   0.00000  Uiso   1.00
H492   H     0.99548   0.04800   0.92046   0.00000  Uiso   1.00
H493   H     0.76115   0.12431   0.66893   0.00000  Uiso   1.00
H494   H     0.90270   0.25972   0.25178   0.00000  Uiso   1.00
H495   H     0.81798   0.26468   0.10297   0.00000  Uiso   1.00
H496   H     0.82583   0.25806   0.34930   0.00000  Uiso   1.00
H497   H     0.99691   0.37855   0.42140   0.00000  Uiso   1.00
H498   H     0.84231   0.23006   0.25479   0.00000  Uiso   1.00
H499   H     0.89568   0.38965   0.38011   0.00000  Uiso   1.00
H500   H     0.99738   0.28602   0.29700   0.00000  Uiso   1.00
H501   H     0.98836   0.28593   0.04889   0.00000  Uiso   1.00
H502   H     0.90596   0.25952   0.74694   0.00000  Uiso   1.00
H503   H     0.81462   0.27279   0.60668   0.00000  Uiso   1.00
H504   H     0.82319   0.25514   0.85116   0.00000  Uiso   1.00
H505   H     0.84331   0.22954   0.75064   0.00000  Uiso   1.00
H506   H     0.99034   0.28652   0.54770   0.00000  Uiso   1.00
H507   H     0.89936   0.39020   0.87732   0.00000  Uiso   1.00
H508   H     0.85486   0.21283   0.99689   0.00000  Uiso   1.00
H509   H     0.91469   0.25196   0.99792   0.00000  Uiso   1.00
H510   H     0.90073   0.38704   0.62915   0.00000  Uiso   1.00
H511   H     0.98715   0.28316   0.79973   0.00000  Uiso   1.00
H512   H     0.99750   0.37355   0.68212   0.00000  Uiso   1.00
H513   H     0.85216   0.22457   0.50080   0.00000  Uiso   1.00
H514   H     0.90886   0.25322   0.50340   0.00000  Uiso   1.00
H515   H     0.92523   0.42623   0.23096   0.00000  Uiso   1.00
H516   H     0.84598   0.56197   0.24578   0.00000  Uiso   1.00
H517   H     0.83257   0.41801   0.36867   0.00000  Uiso   1.00
H518   H     0.82508   0.59355   0.09282   0.00000  Uiso   1.00
H519   H     0.84794   0.43247   0.13027   0.00000  Uiso   1.00
H520   H     0.92238   0.41741   0.47939   0.00000  Uiso   1.00
H521   H     0.91589   0.58622   0.49434   0.00000  Uiso   1.00
H522   H     0.75249   0.45638   0.17684   0.00000  Uiso   1.00
H523   H     0.91528   0.58971   0.24167   0.00000  Uiso   1.00
H524   H     0.76543   0.45264   0.42699   0.00000  Uiso   1.00
H525   H     0.81720   0.59878   0.35657   0.00000  Uiso   1.00
H526   H     0.90757   0.40003   0.13202   0.00000  Uiso   1.00
H527   H     0.85193   0.56174   0.75073   0.00000  Uiso   1.00
H528   H     0.83230   0.41251   0.86551   0.00000  Uiso   1.00
H529   H     0.85486   0.55863   0.50223   0.00000  Uiso   1.00
H530   H     0.92099   0.57844   0.99332   0.00000  Uiso   1.00
H531   H     0.85958   0.54870   0.99403   0.00000  Uiso   1.00
H532   H     0.91779   0.41864   0.72128   0.00000  Uiso   1.00
H533   H     0.92540   0.42290   0.97365   0.00000  Uiso   1.00
H534   H     0.91264   0.59651   0.74891   0.00000  Uiso   1.00
H535   H     0.83679   0.41700   0.62638   0.00000  Uiso   1.00
H536   H     0.83326   0.58233   0.84294   0.00000  Uiso   1.00
H537   H     0.82643   0.58912   0.59511   0.00000  Uiso   1.00
H538   H     0.75910   0.44851   0.92645   0.00000  Uiso   1.00
H539   H     0.92032   0.74814   0.46935   0.00000  Uiso   1.00
H540   H     0.90937   0.73718   0.21435   0.00000  Uiso   1.00
H541   H     0.82071   0.73637   0.10442   0.00000  Uiso   1.00
H542   H     0.88725   0.70788   0.11190   0.00000  Uiso   1.00
H543   H     0.99641   0.70903   0.17367   0.00000  Uiso   1.00
H544   H     0.83529   0.76382   0.37491   0.00000  Uiso   1.00
H545   H     0.89854   0.73372   0.37633   0.00000  Uiso   1.00
H546   H     0.98514   0.62699   0.04455   0.00000  Uiso   1.00
H547   H     0.98804   0.62282   0.29379   0.00000  Uiso   1.00
H548   H     0.99172   0.71239   0.41868   0.00000  Uiso   1.00
H549   H     0.77150   0.79546   0.66179   0.00000  Uiso   1.00
H550   H     0.92591   0.75269   0.72523   0.00000  Uiso   1.00
H551   H     0.82636   0.74869   0.61100   0.00000  Uiso   1.00
H552   H     0.88771   0.70912   0.61509   0.00000  Uiso   1.00
H553   H     0.75965   0.79177   0.91463   0.00000  Uiso   1.00
H554   H     0.83017   0.74786   0.86332   0.00000  Uiso   1.00
H555   H     0.88699   0.71346   0.86892   0.00000  Uiso   1.00
H556   H     0.92753   0.76306   0.97612   0.00000  Uiso   1.00
H557   H     0.99567   0.71199   0.92385   0.00000  Uiso   1.00
H558   H     0.99095   0.62125   0.54684   0.00000  Uiso   1.00
H559   H     0.99306   0.62066   0.79052   0.00000  Uiso   1.00
H560   H     0.99625   0.70987   0.67101   0.00000  Uiso   1.00
H561   H     0.90997   0.92106   0.25301   0.00000  Uiso   1.00
H562   H     0.84754   0.88502   0.24552   0.00000  Uiso   1.00
H563   H     0.82906   0.92698   0.09697   0.00000  Uiso   1.00
H564   H     0.98932   0.95832   0.04828   0.00000  Uiso   1.00
H565   H     0.82423   0.92936   0.35823   0.00000  Uiso   1.00
H566   H     0.98844   0.95538   0.29942   0.00000  Uiso   1.00
H567   H     0.84793   0.89765   0.00028   0.00000  Uiso   1.00
H568   H     0.91325   0.91979   0.74156   0.00000  Uiso   1.00
H569   H     0.85307   0.88511   0.74130   0.00000  Uiso   1.00
H570   H     0.81957   0.92854   0.59816   0.00000  Uiso   1.00
H571   H     0.82633   0.93305   0.84477   0.00000  Uiso   1.00
H572   H     0.91573   0.92557   0.50103   0.00000  Uiso   1.00
H573   H     0.85086   0.88782   0.50822   0.00000  Uiso   1.00
H574   H     0.91006   0.93323   0.99958   0.00000  Uiso   1.00
H575   H     0.98671   0.95856   0.79196   0.00000  Uiso   1.00
H576   H     0.99766   0.95136   0.54844   0.00000  Uiso   1.00
C577   C     0.15380   0.07935   0.00521   0.00000  Uiso   1.00
C578   C     0.10567   0.07952   0.09216   0.00000  Uiso   1.00
C579   C     0.14220   0.09570   0.09380   0.00000  Uiso   1.00
C580   C     0.05493   0.04253   0.04877   0.00000  Uiso   1.00
C581   C     0.09415   0.05929   0.04744   0.00000  Uiso   1.00
C582   C     0.20281   0.12005   0.05106   0.00000  Uiso   1.00
C583   C     0.16754   0.09701   0.04924   0.00000  Uiso   1.00
C584   C     0.10448   0.07868   0.33679   0.00000  Uiso   1.00
C585   C     0.13964   0.09703   0.34194   0.00000  Uiso   1.00
C586   C     0.12489   0.05548   0.25707   0.00000  Uiso   1.00
C587   C     0.16017   0.07621   0.26034   0.00000  Uiso   1.00
C588   C     0.05901   0.03737   0.29572   0.00000  Uiso   1.00
C589   C     0.09573   0.05897   0.29523   0.00000  Uiso   1.00
C590   C     0.20106   0.12241   0.30197   0.00000  Uiso   1.00
C591   C     0.16744   0.09807   0.30245   0.00000  Uiso   1.00
C592   C     0.11800   0.05945   0.00318   0.00000  Uiso   1.00
C593   C     0.16138   0.07145   0.51407   0.00000  Uiso   1.00
C594   C     0.10821   0.08199   0.59241   0.00000  Uiso   1.00
C595   C     0.14500   0.10090   0.59156   0.00000  Uiso   1.00
C596   C     0.12680   0.05270   0.51369   0.00000  Uiso   1.00
C597   C     0.06140   0.03795   0.54891   0.00000  Uiso   1.00
C598   C     0.09790   0.05876   0.55149   0.00000  Uiso   1.00
C599   C     0.20333   0.12218   0.54717   0.00000  Uiso   1.00
C600   C     0.17141   0.09669   0.55285   0.00000  Uiso   1.00
C601   C     0.10418   0.08137   0.83606   0.00000  Uiso   1.00
C602   C     0.13891   0.10221   0.83626   0.00000  Uiso   1.00
C603   C     0.12222   0.05903   0.75410   0.00000  Uiso   1.00
C604   C     0.15556   0.07962   0.75406   0.00000  Uiso   1.00
C605   C     0.05987   0.04070   0.79492   0.00000  Uiso   1.00
C606   C     0.09588   0.05963   0.79564   0.00000  Uiso   1.00
C607   C     0.19750   0.12685   0.79502   0.00000  Uiso   1.00
C608   C     0.16345   0.10315   0.79478   0.00000  Uiso   1.00
C609   C     0.18814   0.19902   0.66692   0.00000  Uiso   1.00
C610   C     0.09226   0.38783   0.05485   0.00000  Uiso   1.00
C611   C     0.09381   0.39073   0.29684   0.00000  Uiso   1.00
C612   C     0.11582   0.38891   0.01049   0.00000  Uiso   1.00
C613   C     0.05764   0.37010   0.29707   0.00000  Uiso   1.00
C614   C     0.19004   0.20029   0.42489   0.00000  Uiso   1.00
C615   C     0.13089   0.22386   0.12233   0.00000  Uiso   1.00
C616   C     0.09488   0.24236   0.12446   0.00000  Uiso   1.00
C617   C     0.14267   0.24324   0.46701   0.00000  Uiso   1.00
C618   C     0.15653   0.22524   0.16499   0.00000  Uiso   1.00
C619   C     0.04783   0.28588   0.16794   0.00000  Uiso   1.00
C620   C     0.08272   0.26177   0.16822   0.00000  Uiso   1.00
C621   C     0.14239   0.24015   0.21006   0.00000  Uiso   1.00
C622   C     0.10651   0.25868   0.21240   0.00000  Uiso   1.00
C623   C     0.05339   0.36786   0.05599   0.00000  Uiso   1.00
C624   C     0.08047   0.25700   0.42971   0.00000  Uiso   1.00
C625   C     0.12575   0.21710   0.38646   0.00000  Uiso   1.00
C626   C     0.09010   0.23479   0.39004   0.00000  Uiso   1.00
C627   C     0.10897   0.26146   0.46770   0.00000  Uiso   1.00
C628   C     0.15258   0.22067   0.42534   0.00000  Uiso   1.00
C629   C     0.04453   0.28084   0.42553   0.00000  Uiso   1.00
C630   C     0.12114   0.38812   0.25556   0.00000  Uiso   1.00
C631   C     0.19372   0.20834   0.16613   0.00000  Uiso   1.00
C632   C     0.11294   0.26531   0.97637   0.00000  Uiso   1.00
C633   C     0.12175   0.38419   0.76303   0.00000  Uiso   1.00
C634   C     0.05539   0.36991   0.80099   0.00000  Uiso   1.00
C635   C     0.12524   0.22152   0.62664   0.00000  Uiso   1.00
C636   C     0.09046   0.24124   0.62646   0.00000  Uiso   1.00
C637   C     0.15147   0.22210   0.66731   0.00000  Uiso   1.00
C638   C     0.04252   0.28068   0.67099   0.00000  Uiso   1.00
C639   C     0.07886   0.25974   0.66947   0.00000  Uiso   1.00
C640   C     0.14039   0.24216   0.71119   0.00000  Uiso   1.00
C641   C     0.10389   0.25933   0.71266   0.00000  Uiso   1.00
C642   C     0.05539   0.37435   0.54678   0.00000  Uiso   1.00
C643   C     0.14851   0.24682   0.97259   0.00000  Uiso   1.00
C644   C     0.12935   0.22569   0.88622   0.00000  Uiso   1.00
C645   C     0.09467   0.24312   0.89242   0.00000  Uiso   1.00
C646   C     0.08513   0.26385   0.93664   0.00000  Uiso   1.00
C647   C     0.15645   0.22833   0.92589   0.00000  Uiso   1.00
C648   C     0.05083   0.28819   0.93382   0.00000  Uiso   1.00
C649   C     0.09415   0.38895   0.80069   0.00000  Uiso   1.00
C650   C     0.12314   0.38639   0.50762   0.00000  Uiso   1.00
C651   C     0.09370   0.39487   0.54323   0.00000  Uiso   1.00
C652   C     0.19293   0.20676   0.92684   0.00000  Uiso   1.00
C653   C     0.10194   0.58537   0.21814   0.00000  Uiso   1.00
C654   C     0.10191   0.41457   0.33626   0.00000  Uiso   1.00
C655   C     0.15535   0.40853   0.25825   0.00000  Uiso   1.00
C656   C     0.12572   0.55151   0.12825   0.00000  Uiso   1.00
C657   C     0.08191   0.59445   0.42117   0.00000  Uiso   1.00
C658   C     0.09094   0.57102   0.12829   0.00000  Uiso   1.00
C659   C     0.13692   0.42981   0.09286   0.00000  Uiso   1.00
C660   C     0.19039   0.53413   0.16829   0.00000  Uiso   1.00
C661   C     0.15137   0.55204   0.17067   0.00000  Uiso   1.00
C662   C     0.14463   0.58097   0.46065   0.00000  Uiso   1.00
C663   C     0.13691   0.56824   0.21634   0.00000  Uiso   1.00
C664   C     0.15191   0.40808   0.01001   0.00000  Uiso   1.00
C665   C     0.19559   0.45384   0.04618   0.00000  Uiso   1.00
C666   C     0.16129   0.43135   0.04879   0.00000  Uiso   1.00
C667   C     0.12787   0.55213   0.38064   0.00000  Uiso   1.00
C668   C     0.09150   0.57094   0.38101   0.00000  Uiso   1.00
C669   C     0.13825   0.43251   0.33902   0.00000  Uiso   1.00
C670   C     0.19316   0.53730   0.42102   0.00000  Uiso   1.00
C671   C     0.15520   0.55756   0.41953   0.00000  Uiso   1.00
C672   C     0.16475   0.43079   0.30055   0.00000  Uiso   1.00
C673   C     0.19927   0.45353   0.30024   0.00000  Uiso   1.00
C674   C     0.07909   0.58858   0.17452   0.00000  Uiso   1.00
C675   C     0.10606   0.40577   0.09603   0.00000  Uiso   1.00
C676   C     0.10917   0.59387   0.71288   0.00000  Uiso   1.00
C677   C     0.15592   0.40559   0.76129   0.00000  Uiso   1.00
C678   C     0.12677   0.55428   0.62529   0.00000  Uiso   1.00
C679   C     0.09348   0.57521   0.62743   0.00000  Uiso   1.00
C680   C     0.13731   0.43875   0.58325   0.00000  Uiso   1.00
C681   C     0.19080   0.53351   0.66900   0.00000  Uiso   1.00
C682   C     0.15333   0.55496   0.66718   0.00000  Uiso   1.00
C683   C     0.14383   0.57399   0.70951   0.00000  Uiso   1.00
C684   C     0.16177   0.43306   0.79788   0.00000  Uiso   1.00
C685   C     0.19957   0.45631   0.54581   0.00000  Uiso   1.00
C686   C     0.16416   0.43327   0.54571   0.00000  Uiso   1.00
C687   C     0.12815   0.55342   0.87980   0.00000  Uiso   1.00
C688   C     0.09403   0.57413   0.88307   0.00000  Uiso   1.00
C689   C     0.13766   0.43459   0.84062   0.00000  Uiso   1.00
C690   C     0.19142   0.53354   0.91883   0.00000  Uiso   1.00
C691   C     0.15580   0.55402   0.91973   0.00000  Uiso   1.00
C692   C     0.10325   0.41392   0.83896   0.00000  Uiso   1.00
C693   C     0.14691   0.57757   0.96115   0.00000  Uiso   1.00
C694   C     0.19416   0.45789   0.79418   0.00000  Uiso   1.00
C695   C     0.10147   0.42073   0.58383   0.00000  Uiso   1.00
C696   C     0.08774   0.59846   0.92208   0.00000  Uiso   1.00
C697   C     0.08413   0.59512   0.67227   0.00000  Uiso   1.00
C698   C     0.15730   0.40811   0.50800   0.00000  Uiso   1.00
C699   C     0.20107   0.78580   0.29992   0.00000  Uiso   1.00
C700   C     0.20083   0.79029   0.04695   0.00000  Uiso   1.00
C701   C     0.15469   0.74329   0.00241   0.00000  Uiso   1.00
C702   C     0.04616   0.61507   0.17316   0.00000  Uiso   1.00
C703   C     0.10677   0.74533   0.08814   0.00000  Uiso   1.00
C704   C     0.14273   0.76136   0.09104   0.00000  Uiso   1.00
C705   C     0.05391   0.71020   0.04546   0.00000  Uiso   1.00
C706   C     0.09367   0.72799   0.04503   0.00000  Uiso   1.00
C707   C     0.16644   0.76453   0.04598   0.00000  Uiso   1.00
C708   C     0.04822   0.61856   0.41985   0.00000  Uiso   1.00
C709   C     0.10373   0.74436   0.33955   0.00000  Uiso   1.00
C710   C     0.14046   0.76190   0.34188   0.00000  Uiso   1.00
C711   C     0.12279   0.71954   0.25724   0.00000  Uiso   1.00
C712   C     0.15775   0.74004   0.25800   0.00000  Uiso   1.00
C713   C     0.05517   0.70589   0.29374   0.00000  Uiso   1.00
C714   C     0.09349   0.72491   0.29363   0.00000  Uiso   1.00
C715   C     0.16687   0.76019   0.30100   0.00000  Uiso   1.00
C716   C     0.11840   0.72583   0.00255   0.00000  Uiso   1.00
C717   C     0.11022   0.60053   0.45970   0.00000  Uiso   1.00
C718   C     0.19275   0.79389   0.55089   0.00000  Uiso   1.00
C719   C     0.04726   0.61681   0.67270   0.00000  Uiso   1.00
C720   C     0.09829   0.74949   0.59031   0.00000  Uiso   1.00
C721   C     0.13272   0.76999   0.59276   0.00000  Uiso   1.00
C722   C     0.05392   0.70948   0.54610   0.00000  Uiso   1.00
C723   C     0.08924   0.72941   0.54671   0.00000  Uiso   1.00
C724   C     0.15628   0.77234   0.54959   0.00000  Uiso   1.00
C725   C     0.05348   0.62355   0.92177   0.00000  Uiso   1.00
C726   C     0.10606   0.74279   0.83814   0.00000  Uiso   1.00
C727   C     0.14148   0.76050   0.84325   0.00000  Uiso   1.00
C728   C     0.12153   0.72762   0.74945   0.00000  Uiso   1.00
C729   C     0.15699   0.74780   0.75376   0.00000  Uiso   1.00
C730   C     0.05691   0.70860   0.79167   0.00000  Uiso   1.00
C731   C     0.09424   0.72825   0.79155   0.00000  Uiso   1.00
C732   C     0.14880   0.75019   0.50931   0.00000  Uiso   1.00
C733   C     0.16676   0.76422   0.80109   0.00000  Uiso   1.00
C734   C     0.11632   0.72737   0.50735   0.00000  Uiso   1.00
C735   C     0.20166   0.78811   0.80130   0.00000  Uiso   1.00
C736   C     0.11532   0.60014   0.95934   0.00000  Uiso   1.00
C737   C     0.12629   0.88514   0.13018   0.00000  Uiso   1.00
C738   C     0.09120   0.90617   0.13023   0.00000  Uiso   1.00
C739   C     0.18718   0.86204   0.17511   0.00000  Uiso   1.00
C740   C     0.14717   0.87971   0.17500   0.00000  Uiso   1.00
C741   C     0.04517   0.94699   0.17469   0.00000  Uiso   1.00
C742   C     0.07619   0.92000   0.17586   0.00000  Uiso   1.00
C743   C     0.13248   0.89613   0.21867   0.00000  Uiso   1.00
C744   C     0.09674   0.91383   0.22055   0.00000  Uiso   1.00
C745   C     0.12448   0.88008   0.38705   0.00000  Uiso   1.00
C746   C     0.08909   0.90030   0.38831   0.00000  Uiso   1.00
C747   C     0.18863   0.86407   0.42623   0.00000  Uiso   1.00
C748   C     0.15277   0.88431   0.42638   0.00000  Uiso   1.00
C749   C     0.04835   0.94890   0.42683   0.00000  Uiso   1.00
C750   C     0.08371   0.92638   0.42635   0.00000  Uiso   1.00
C751   C     0.14449   0.90909   0.46323   0.00000  Uiso   1.00
C752   C     0.11101   0.93031   0.46193   0.00000  Uiso   1.00
C753   C     0.12942   0.88715   0.62994   0.00000  Uiso   1.00
C754   C     0.09409   0.90608   0.62912   0.00000  Uiso   1.00
C755   C     0.19309   0.86989   0.67114   0.00000  Uiso   1.00
C756   C     0.15514   0.88871   0.67135   0.00000  Uiso   1.00
C757   C     0.05010   0.95209   0.67125   0.00000  Uiso   1.00
C758   C     0.08430   0.92825   0.67152   0.00000  Uiso   1.00
C759   C     0.14353   0.90808   0.71505   0.00000  Uiso   1.00
C760   C     0.10877   0.92778   0.71471   0.00000  Uiso   1.00
C761   C     0.12824   0.88481   0.88097   0.00000  Uiso   1.00
C762   C     0.09337   0.90473   0.88122   0.00000  Uiso   1.00
C763   C     0.19109   0.86663   0.92027   0.00000  Uiso   1.00
C764   C     0.15523   0.88711   0.92006   0.00000  Uiso   1.00
C765   C     0.04993   0.95085   0.92485   0.00000  Uiso   1.00
C766   C     0.08421   0.92611   0.92443   0.00000  Uiso   1.00
C767   C     0.14836   0.91076   0.95954   0.00000  Uiso   1.00
C768   C     0.11364   0.93129   0.96369   0.00000  Uiso   1.00
C769   C     0.31095   0.13493   0.04644   0.00000  Uiso   1.00
C770   C     0.34888   0.11896   0.04845   0.00000  Uiso   1.00
C771   C     0.45025   0.05084   0.04714   0.00000  Uiso   1.00
C772   C     0.41735   0.07655   0.05156   0.00000  Uiso   1.00
C773   C     0.35962   0.09881   0.09110   0.00000  Uiso   1.00
C774   C     0.39299   0.07875   0.09484   0.00000  Uiso   1.00
C775   C     0.37185   0.11319   0.25398   0.00000  Uiso   1.00
C776   C     0.40906   0.09424   0.25792   0.00000  Uiso   1.00
C777   C     0.30497   0.12834   0.29316   0.00000  Uiso   1.00
C778   C     0.34370   0.11041   0.29210   0.00000  Uiso   1.00
C779   C     0.44889   0.04670   0.30064   0.00000  Uiso   1.00
C780   C     0.41517   0.07125   0.29844   0.00000  Uiso   1.00
C781   C     0.35200   0.08805   0.33424   0.00000  Uiso   1.00
C782   C     0.38752   0.06862   0.33650   0.00000  Uiso   1.00
C783   C     0.37339   0.11804   0.00645   0.00000  Uiso   1.00
C784   C     0.40819   0.09820   0.00830   0.00000  Uiso   1.00
C785   C     0.30939   0.12634   0.54692   0.00000  Uiso   1.00
C786   C     0.34552   0.10476   0.54372   0.00000  Uiso   1.00
C787   C     0.45487   0.05040   0.54951   0.00000  Uiso   1.00
C788   C     0.41810   0.07082   0.54713   0.00000  Uiso   1.00
C789   C     0.35468   0.08324   0.58555   0.00000  Uiso   1.00
C790   C     0.39185   0.06996   0.58832   0.00000  Uiso   1.00
C791   C     0.37186   0.11430   0.75715   0.00000  Uiso   1.00
C792   C     0.40690   0.09358   0.75754   0.00000  Uiso   1.00
C793   C     0.30778   0.13176   0.80030   0.00000  Uiso   1.00
C794   C     0.34427   0.11105   0.79809   0.00000  Uiso   1.00
C795   C     0.45110   0.04898   0.79677   0.00000  Uiso   1.00
C796   C     0.41611   0.07129   0.79861   0.00000  Uiso   1.00
C797   C     0.35442   0.08996   0.83940   0.00000  Uiso   1.00
C798   C     0.39095   0.07125   0.84129   0.00000  Uiso   1.00
C799   C     0.40699   0.08996   0.50472   0.00000  Uiso   1.00
C800   C     0.37146   0.10850   0.50275   0.00000  Uiso   1.00
C801   C     0.29993   0.21461   0.17671   0.00000  Uiso   1.00
C802   C     0.39479   0.25856   0.21310   0.00000  Uiso   1.00
C803   C     0.35936   0.24078   0.21898   0.00000  Uiso   1.00
C804   C     0.38041   0.27733   0.13068   0.00000  Uiso   1.00
C805   C     0.34279   0.26150   0.13390   0.00000  Uiso   1.00
C806   C     0.44259   0.29940   0.16947   0.00000  Uiso   1.00
C807   C     0.40754   0.27686   0.17024   0.00000  Uiso   1.00
C808   C     0.33342   0.24076   0.17733   0.00000  Uiso   1.00
C809   C     0.44636   0.37461   0.04558   0.00000  Uiso   1.00
C810   C     0.39026   0.26501   0.46556   0.00000  Uiso   1.00
C811   C     0.35346   0.24631   0.46517   0.00000  Uiso   1.00
C812   C     0.38042   0.27939   0.37760   0.00000  Uiso   1.00
C813   C     0.34493   0.26097   0.37624   0.00000  Uiso   1.00
C814   C     0.44254   0.29968   0.42315   0.00000  Uiso   1.00
C815   C     0.40359   0.28168   0.42160   0.00000  Uiso   1.00
C816   C     0.33132   0.24350   0.41993   0.00000  Uiso   1.00
C817   C     0.45059   0.37957   0.29997   0.00000  Uiso   1.00
C818   C     0.29622   0.21864   0.42031   0.00000  Uiso   1.00
C819   C     0.40750   0.39335   0.04383   0.00000  Uiso   1.00
C820   C     0.37874   0.39179   0.08379   0.00000  Uiso   1.00
C821   C     0.38751   0.39989   0.33847   0.00000  Uiso   1.00
C822   C     0.41129   0.39539   0.55134   0.00000  Uiso   1.00
C823   C     0.39203   0.25978   0.71464   0.00000  Uiso   1.00
C824   C     0.35552   0.24180   0.71807   0.00000  Uiso   1.00
C825   C     0.37846   0.27994   0.62981   0.00000  Uiso   1.00
C826   C     0.34229   0.26296   0.63162   0.00000  Uiso   1.00
C827   C     0.44057   0.29935   0.67258   0.00000  Uiso   1.00
C828   C     0.40321   0.28032   0.67283   0.00000  Uiso   1.00
C829   C     0.33156   0.24199   0.67339   0.00000  Uiso   1.00
C830   C     0.44688   0.37231   0.54965   0.00000  Uiso   1.00
C831   C     0.39730   0.25732   0.96470   0.00000  Uiso   1.00
C832   C     0.36175   0.23712   0.96720   0.00000  Uiso   1.00
C833   C     0.37500   0.28318   0.88340   0.00000  Uiso   1.00
C834   C     0.33988   0.26340   0.88702   0.00000  Uiso   1.00
C835   C     0.44131   0.30032   0.92254   0.00000  Uiso   1.00
C836   C     0.40300   0.28170   0.92338   0.00000  Uiso   1.00
C837   C     0.33437   0.23881   0.92560   0.00000  Uiso   1.00
C838   C     0.45116   0.38119   0.79418   0.00000  Uiso   1.00
C839   C     0.29999   0.21370   0.92390   0.00000  Uiso   1.00
C840   C     0.29946   0.21724   0.67270   0.00000  Uiso   1.00
C841   C     0.38483   0.39696   0.59162   0.00000  Uiso   1.00
C842   C     0.33883   0.59394   0.13214   0.00000  Uiso   1.00
C843   C     0.34987   0.41457   0.33305   0.00000  Uiso   1.00
C844   C     0.41558   0.40240   0.29913   0.00000  Uiso   1.00
C845   C     0.33174   0.57621   0.42056   0.00000  Uiso   1.00
C846   C     0.35566   0.56723   0.21036   0.00000  Uiso   1.00
C847   C     0.30272   0.45999   0.03986   0.00000  Uiso   1.00
C848   C     0.33840   0.43704   0.04251   0.00000  Uiso   1.00
C849   C     0.29656   0.55091   0.41822   0.00000  Uiso   1.00
C850   C     0.34545   0.41302   0.08283   0.00000  Uiso   1.00
C851   C     0.29260   0.54838   0.16983   0.00000  Uiso   1.00
C852   C     0.33018   0.57062   0.17060   0.00000  Uiso   1.00
C853   C     0.37051   0.44081   0.25400   0.00000  Uiso   1.00
C854   C     0.40518   0.42042   0.25484   0.00000  Uiso   1.00
C855   C     0.35935   0.57216   0.45891   0.00000  Uiso   1.00
C856   C     0.30411   0.45863   0.29178   0.00000  Uiso   1.00
C857   C     0.34200   0.43885   0.29287   0.00000  Uiso   1.00
C858   C     0.34196   0.59786   0.37800   0.00000  Uiso   1.00
C859   C     0.39995   0.41662   0.00293   0.00000  Uiso   1.00
C860   C     0.36586   0.43768   0.00194   0.00000  Uiso   1.00
C861   C     0.39414   0.59183   0.45594   0.00000  Uiso   1.00
C862   C     0.39135   0.58798   0.21033   0.00000  Uiso   1.00
C863   C     0.34085   0.59278   0.63509   0.00000  Uiso   1.00
C864   C     0.29909   0.54435   0.91742   0.00000  Uiso   1.00
C865   C     0.34451   0.59254   0.88082   0.00000  Uiso   1.00
C866   C     0.35459   0.42213   0.83657   0.00000  Uiso   1.00
C867   C     0.33512   0.56809   0.92071   0.00000  Uiso   1.00
C868   C     0.35521   0.57744   0.72128   0.00000  Uiso   1.00
C869   C     0.30868   0.46037   0.54741   0.00000  Uiso   1.00
C870   C     0.34207   0.43707   0.54819   0.00000  Uiso   1.00
C871   C     0.35279   0.41680   0.59031   0.00000  Uiso   1.00
C872   C     0.39065   0.59586   0.71788   0.00000  Uiso   1.00
C873   C     0.39619   0.58413   0.95968   0.00000  Uiso   1.00
C874   C     0.29587   0.54804   0.67930   0.00000  Uiso   1.00
C875   C     0.33013   0.57440   0.67972   0.00000  Uiso   1.00
C876   C     0.36987   0.44373   0.75040   0.00000  Uiso   1.00
C877   C     0.40610   0.42569   0.75208   0.00000  Uiso   1.00
C878   C     0.36064   0.56532   0.96130   0.00000  Uiso   1.00
C879   C     0.30528   0.46049   0.79400   0.00000  Uiso   1.00
C880   C     0.34353   0.44088   0.79212   0.00000  Uiso   1.00
C881   C     0.41578   0.40529   0.79607   0.00000  Uiso   1.00
C882   C     0.36868   0.43984   0.50815   0.00000  Uiso   1.00
C883   C     0.40224   0.41710   0.50673   0.00000  Uiso   1.00
C884   C     0.39151   0.40659   0.84053   0.00000  Uiso   1.00
C885   C     0.40301   0.61532   0.41634   0.00000  Uiso   1.00
C886   C     0.37428   0.61480   0.12998   0.00000  Uiso   1.00
C887   C     0.37001   0.77325   0.00983   0.00000  Uiso   1.00
C888   C     0.37478   0.61962   0.37675   0.00000  Uiso   1.00
C889   C     0.44018   0.62897   0.16902   0.00000  Uiso   1.00
C890   C     0.34232   0.76968   0.05035   0.00000  Uiso   1.00
C891   C     0.45073   0.70905   0.05182   0.00000  Uiso   1.00
C892   C     0.41460   0.73060   0.05228   0.00000  Uiso   1.00
C893   C     0.35360   0.75082   0.09279   0.00000  Uiso   1.00
C894   C     0.38930   0.73269   0.09457   0.00000  Uiso   1.00
C895   C     0.44085   0.63501   0.41838   0.00000  Uiso   1.00
C896   C     0.37082   0.77621   0.25690   0.00000  Uiso   1.00
C897   C     0.40365   0.75436   0.25558   0.00000  Uiso   1.00
C898   C     0.34759   0.77767   0.30002   0.00000  Uiso   1.00
C899   C     0.45282   0.71266   0.29841   0.00000  Uiso   1.00
C900   C     0.41794   0.73705   0.29965   0.00000  Uiso   1.00
C901   C     0.35969   0.75795   0.34367   0.00000  Uiso   1.00
C902   C     0.39629   0.73907   0.34350   0.00000  Uiso   1.00
C903   C     0.40201   0.61022   0.16889   0.00000  Uiso   1.00
C904   C     0.31008   0.79842   0.30033   0.00000  Uiso   1.00
C905   C     0.40532   0.75366   0.00892   0.00000  Uiso   1.00
C906   C     0.30650   0.79046   0.05486   0.00000  Uiso   1.00
C907   C     0.39857   0.74854   0.50331   0.00000  Uiso   1.00
C908   C     0.37505   0.61349   0.63128   0.00000  Uiso   1.00
C909   C     0.29837   0.78321   0.54680   0.00000  Uiso   1.00
C910   C     0.30843   0.79344   0.79658   0.00000  Uiso   1.00
C911   C     0.43928   0.63214   0.67093   0.00000  Uiso   1.00
C912   C     0.37953   0.61258   0.87977   0.00000  Uiso   1.00
C913   C     0.33651   0.76411   0.54287   0.00000  Uiso   1.00
C914   C     0.44636   0.70499   0.54461   0.00000  Uiso   1.00
C915   C     0.40868   0.72538   0.54472   0.00000  Uiso   1.00
C916   C     0.34599   0.74200   0.58305   0.00000  Uiso   1.00
C917   C     0.38128   0.72134   0.58217   0.00000  Uiso   1.00
C918   C     0.44401   0.62684   0.91813   0.00000  Uiso   1.00
C919   C     0.37202   0.77430   0.75083   0.00000  Uiso   1.00
C920   C     0.40993   0.75753   0.75302   0.00000  Uiso   1.00
C921   C     0.34836   0.77692   0.79564   0.00000  Uiso   1.00
C922   C     0.45673   0.71889   0.80233   0.00000  Uiso   1.00
C923   C     0.42442   0.74424   0.80161   0.00000  Uiso   1.00
C924   C     0.36286   0.76342   0.84168   0.00000  Uiso   1.00
C925   C     0.39983   0.74660   0.84240   0.00000  Uiso   1.00
C926   C     0.40115   0.61391   0.67349   0.00000  Uiso   1.00
C927   C     0.40641   0.60807   0.91876   0.00000  Uiso   1.00
C928   C     0.36450   0.76895   0.50444   0.00000  Uiso   1.00
C929   C     0.39210   0.92408   0.21311   0.00000  Uiso   1.00
C930   C     0.35624   0.90579   0.21473   0.00000  Uiso   1.00
C931   C     0.37406   0.94927   0.13207   0.00000  Uiso   1.00
C932   C     0.33729   0.93313   0.13515   0.00000  Uiso   1.00
C933   C     0.43981   0.96733   0.17139   0.00000  Uiso   1.00
C934   C     0.40215   0.94604   0.17190   0.00000  Uiso   1.00
C935   C     0.29582   0.88368   0.17338   0.00000  Uiso   1.00
C936   C     0.32942   0.91038   0.17579   0.00000  Uiso   1.00
C937   C     0.39160   0.91942   0.46114   0.00000  Uiso   1.00
C938   C     0.35590   0.90200   0.46310   0.00000  Uiso   1.00
C939   C     0.37585   0.94436   0.37929   0.00000  Uiso   1.00
C940   C     0.33930   0.92748   0.37943   0.00000  Uiso   1.00
C941   C     0.44084   0.96141   0.42313   0.00000  Uiso   1.00
C942   C     0.40349   0.94018   0.41974   0.00000  Uiso   1.00
C943   C     0.29395   0.88348   0.42113   0.00000  Uiso   1.00
C944   C     0.32856   0.90532   0.42111   0.00000  Uiso   1.00
C945   C     0.39631   0.92182   0.71189   0.00000  Uiso   1.00
C946   C     0.36241   0.90018   0.71242   0.00000  Uiso   1.00
C947   C     0.38286   0.93794   0.62407   0.00000  Uiso   1.00
C948   C     0.34957   0.91668   0.62637   0.00000  Uiso   1.00
C949   C     0.44634   0.96113   0.66746   0.00000  Uiso   1.00
C950   C     0.40803   0.93933   0.66665   0.00000  Uiso   1.00
C951   C     0.30284   0.87450   0.67196   0.00000  Uiso   1.00
C952   C     0.33761   0.89821   0.66962   0.00000  Uiso   1.00
C953   C     0.39584   0.91878   0.96695   0.00000  Uiso   1.00
C954   C     0.36089   0.90157   0.96923   0.00000  Uiso   1.00
C955   C     0.37645   0.94710   0.88648   0.00000  Uiso   1.00
C956   C     0.33990   0.93163   0.89156   0.00000  Uiso   1.00
C957   C     0.44178   0.96316   0.92351   0.00000  Uiso   1.00
C958   C     0.40387   0.94345   0.92546   0.00000  Uiso   1.00
C959   C     0.29752   0.88343   0.92778   0.00000  Uiso   1.00
C960   C     0.33226   0.90804   0.93203   0.00000  Uiso   1.00
C961   C     0.60157   0.08141   0.08706   0.00000  Uiso   1.00
C962   C     0.63949   0.09385   0.09505   0.00000  Uiso   1.00
C963   C     0.55606   0.03910   0.04045   0.00000  Uiso   1.00
C964   C     0.59336   0.06011   0.04098   0.00000  Uiso   1.00
C965   C     0.70198   0.11645   0.05326   0.00000  Uiso   1.00
C966   C     0.66756   0.09205   0.05698   0.00000  Uiso   1.00
C967   C     0.60445   0.08228   0.34406   0.00000  Uiso   1.00
C968   C     0.64122   0.09984   0.34404   0.00000  Uiso   1.00
C969   C     0.62097   0.05589   0.26132   0.00000  Uiso   1.00
C970   C     0.65768   0.07537   0.26147   0.00000  Uiso   1.00
C971   C     0.55450   0.03997   0.30123   0.00000  Uiso   1.00
C972   C     0.59410   0.06020   0.30193   0.00000  Uiso   1.00
C973   C     0.70243   0.12151   0.30097   0.00000  Uiso   1.00
C974   C     0.66728   0.09697   0.30421   0.00000  Uiso   1.00
C975   C     0.62257   0.05624   0.00185   0.00000  Uiso   1.00
C976   C     0.65764   0.07272   0.01213   0.00000  Uiso   1.00
C977   C     0.69295   0.19885   0.42040   0.00000  Uiso   1.00
C978   C     0.66045   0.07299   0.50882   0.00000  Uiso   1.00
C979   C     0.68877   0.19921   0.67123   0.00000  Uiso   1.00
C980   C     0.60491   0.07892   0.58516   0.00000  Uiso   1.00
C981   C     0.63787   0.09956   0.58648   0.00000  Uiso   1.00
C982   C     0.55930   0.03620   0.54523   0.00000  Uiso   1.00
C983   C     0.59836   0.05433   0.54450   0.00000  Uiso   1.00
C984   C     0.70093   0.12208   0.54670   0.00000  Uiso   1.00
C985   C     0.66691   0.09702   0.54897   0.00000  Uiso   1.00
C986   C     0.60121   0.08164   0.83150   0.00000  Uiso   1.00
C987   C     0.63622   0.10153   0.83349   0.00000  Uiso   1.00
C988   C     0.62156   0.05432   0.75256   0.00000  Uiso   1.00
C989   C     0.65615   0.07224   0.75334   0.00000  Uiso   1.00
C990   C     0.55731   0.03620   0.79491   0.00000  Uiso   1.00
C991   C     0.59203   0.05954   0.79053   0.00000  Uiso   1.00
C992   C     0.69970   0.12257   0.79336   0.00000  Uiso   1.00
C993   C     0.66428   0.09764   0.79286   0.00000  Uiso   1.00
C994   C     0.62767   0.05058   0.50604   0.00000  Uiso   1.00
C995   C     0.60666   0.25259   0.46625   0.00000  Uiso   1.00
C996   C     0.62338   0.39365   0.25754   0.00000  Uiso   1.00
C997   C     0.55890   0.37350   0.29734   0.00000  Uiso   1.00
C998   C     0.62381   0.21689   0.13516   0.00000  Uiso   1.00
C999   C     0.58939   0.23874   0.13443   0.00000  Uiso   1.00
C1000  C     0.65105   0.21915   0.17583   0.00000  Uiso   1.00
C1001  C     0.54724   0.28662   0.17535   0.00000  Uiso   1.00
C1002  C     0.58171   0.26205   0.17613   0.00000  Uiso   1.00
C1003  C     0.64133   0.23784   0.21864   0.00000  Uiso   1.00
C1004  C     0.60702   0.26114   0.21829   0.00000  Uiso   1.00
C1005  C     0.55194   0.37955   0.04680   0.00000  Uiso   1.00
C1006  C     0.64136   0.23336   0.46309   0.00000  Uiso   1.00
C1007  C     0.62731   0.21470   0.37560   0.00000  Uiso   1.00
C1008  C     0.59211   0.23400   0.37972   0.00000  Uiso   1.00
C1009  C     0.65322   0.21568   0.41899   0.00000  Uiso   1.00
C1010  C     0.54683   0.28105   0.42214   0.00000  Uiso   1.00
C1011  C     0.58178   0.25517   0.42273   0.00000  Uiso   1.00
C1012  C     0.59740   0.39374   0.29778   0.00000  Uiso   1.00
C1013  C     0.61657   0.39940   0.00473   0.00000  Uiso   1.00
C1014  C     0.68900   0.20001   0.17470   0.00000  Uiso   1.00
C1015  C     0.61901   0.38959   0.50900   0.00000  Uiso   1.00
C1016  C     0.58614   0.26872   0.91888   0.00000  Uiso   1.00
C1017  C     0.64088   0.24181   0.96278   0.00000  Uiso   1.00
C1018  C     0.59010   0.39814   0.54605   0.00000  Uiso   1.00
C1019  C     0.60938   0.26514   0.96260   0.00000  Uiso   1.00
C1020  C     0.62509   0.21851   0.62951   0.00000  Uiso   1.00
C1021  C     0.58985   0.23972   0.63001   0.00000  Uiso   1.00
C1022  C     0.55372   0.37472   0.79446   0.00000  Uiso   1.00
C1023  C     0.64984   0.21776   0.67248   0.00000  Uiso   1.00
C1024  C     0.54375   0.28125   0.67385   0.00000  Uiso   1.00
C1025  C     0.57662   0.25600   0.67380   0.00000  Uiso   1.00
C1026  C     0.63754   0.23432   0.71500   0.00000  Uiso   1.00
C1027  C     0.60243   0.25371   0.71651   0.00000  Uiso   1.00
C1028  C     0.55478   0.37629   0.54769   0.00000  Uiso   1.00
C1029  C     0.62635   0.22609   0.87713   0.00000  Uiso   1.00
C1030  C     0.59446   0.24783   0.87678   0.00000  Uiso   1.00
C1031  C     0.65020   0.22208   0.92071   0.00000  Uiso   1.00
C1032  C     0.54987   0.29084   0.92013   0.00000  Uiso   1.00
C1033  C     0.61639   0.39510   0.75185   0.00000  Uiso   1.00
C1034  C     0.68841   0.20317   0.92031   0.00000  Uiso   1.00
C1035  C     0.59115   0.39663   0.79415   0.00000  Uiso   1.00
C1036  C     0.63485   0.56158   0.22126   0.00000  Uiso   1.00
C1037  C     0.60608   0.59057   0.47079   0.00000  Uiso   1.00
C1038  C     0.65882   0.41337   0.25872   0.00000  Uiso   1.00
C1039  C     0.62399   0.54615   0.13229   0.00000  Uiso   1.00
C1040  C     0.60097   0.42076   0.08958   0.00000  Uiso   1.00
C1041  C     0.59066   0.56826   0.13153   0.00000  Uiso   1.00
C1042  C     0.63866   0.43405   0.09455   0.00000  Uiso   1.00
C1043  C     0.68840   0.52907   0.17430   0.00000  Uiso   1.00
C1044  C     0.64797   0.54428   0.17494   0.00000  Uiso   1.00
C1045  C     0.58893   0.40088   0.04638   0.00000  Uiso   1.00
C1046  C     0.70117   0.45656   0.04969   0.00000  Uiso   1.00
C1047  C     0.66446   0.43405   0.05001   0.00000  Uiso   1.00
C1048  C     0.62124   0.54344   0.38856   0.00000  Uiso   1.00
C1049  C     0.58502   0.55985   0.39145   0.00000  Uiso   1.00
C1050  C     0.64594   0.42661   0.34706   0.00000  Uiso   1.00
C1051  C     0.68941   0.53426   0.42392   0.00000  Uiso   1.00
C1052  C     0.64973   0.55168   0.42770   0.00000  Uiso   1.00
C1053  C     0.66997   0.42972   0.30418   0.00000  Uiso   1.00
C1054  C     0.63994   0.57033   0.47002   0.00000  Uiso   1.00
C1055  C     0.70551   0.45440   0.30350   0.00000  Uiso   1.00
C1056  C     0.60059   0.58233   0.22116   0.00000  Uiso   1.00
C1057  C     0.61041   0.40900   0.34367   0.00000  Uiso   1.00
C1058  C     0.65119   0.41861   0.00402   0.00000  Uiso   1.00
C1059  C     0.57935   0.58734   0.17592   0.00000  Uiso   1.00
C1060  C     0.57813   0.58590   0.43003   0.00000  Uiso   1.00
C1061  C     0.60024   0.42074   0.58753   0.00000  Uiso   1.00
C1062  C     0.60310   0.41551   0.83901   0.00000  Uiso   1.00
C1063  C     0.70126   0.45286   0.79797   0.00000  Uiso   1.00
C1064  C     0.61394   0.59798   0.96499   0.00000  Uiso   1.00
C1065  C     0.62648   0.55625   0.63660   0.00000  Uiso   1.00
C1066  C     0.58135   0.59434   0.68150   0.00000  Uiso   1.00
C1067  C     0.59024   0.57309   0.63965   0.00000  Uiso   1.00
C1068  C     0.63722   0.43700   0.58800   0.00000  Uiso   1.00
C1069  C     0.69422   0.54277   0.67469   0.00000  Uiso   1.00
C1070  C     0.65750   0.56443   0.67260   0.00000  Uiso   1.00
C1071  C     0.65216   0.41320   0.75260   0.00000  Uiso   1.00
C1072  C     0.58783   0.59950   0.92277   0.00000  Uiso   1.00
C1073  C     0.69847   0.45549   0.54598   0.00000  Uiso   1.00
C1074  C     0.66339   0.43242   0.54807   0.00000  Uiso   1.00
C1075  C     0.63534   0.55677   0.87917   0.00000  Uiso   1.00
C1076  C     0.64729   0.58493   0.71571   0.00000  Uiso   1.00
C1077  C     0.60056   0.57841   0.87849   0.00000  Uiso   1.00
C1078  C     0.64141   0.42908   0.84037   0.00000  Uiso   1.00
C1079  C     0.69427   0.53512   0.92286   0.00000  Uiso   1.00
C1080  C     0.65731   0.55493   0.92344   0.00000  Uiso   1.00
C1081  C     0.66567   0.43019   0.79745   0.00000  Uiso   1.00
C1082  C     0.64691   0.57475   0.96540   0.00000  Uiso   1.00
C1083  C     0.65581   0.40717   0.51136   0.00000  Uiso   1.00
C1084  C     0.61025   0.59821   0.72126   0.00000  Uiso   1.00
C1085  C     0.54766   0.61338   0.17439   0.00000  Uiso   1.00
C1086  C     0.60183   0.74910   0.07922   0.00000  Uiso   1.00
C1087  C     0.63758   0.76808   0.08116   0.00000  Uiso   1.00
C1088  C     0.69841   0.79289   0.29323   0.00000  Uiso   1.00
C1089  C     0.55602   0.70612   0.04052   0.00000  Uiso   1.00
C1090  C     0.59225   0.72811   0.03761   0.00000  Uiso   1.00
C1091  C     0.69639   0.79410   0.03910   0.00000  Uiso   1.00
C1092  C     0.66093   0.77029   0.03737   0.00000  Uiso   1.00
C1093  C     0.54571   0.61326   0.42406   0.00000  Uiso   1.00
C1094  C     0.60250   0.74516   0.33571   0.00000  Uiso   1.00
C1095  C     0.63943   0.76456   0.33803   0.00000  Uiso   1.00
C1096  C     0.61929   0.72444   0.25017   0.00000  Uiso   1.00
C1097  C     0.65240   0.74818   0.25148   0.00000  Uiso   1.00
C1098  C     0.55861   0.70367   0.29503   0.00000  Uiso   1.00
C1099  C     0.59241   0.72461   0.29260   0.00000  Uiso   1.00
C1100  C     0.66369   0.76837   0.29550   0.00000  Uiso   1.00
C1101  C     0.70215   0.79054   0.79576   0.00000  Uiso   1.00
C1102  C     0.54704   0.61799   0.67826   0.00000  Uiso   1.00
C1103  C     0.60641   0.75049   0.58616   0.00000  Uiso   1.00
C1104  C     0.64075   0.76935   0.58613   0.00000  Uiso   1.00
C1105  C     0.55628   0.70754   0.54966   0.00000  Uiso   1.00
C1106  C     0.59631   0.72564   0.54833   0.00000  Uiso   1.00
C1107  C     0.66668   0.76687   0.54616   0.00000  Uiso   1.00
C1108  C     0.55324   0.62207   0.92442   0.00000  Uiso   1.00
C1109  C     0.60923   0.74531   0.83812   0.00000  Uiso   1.00
C1110  C     0.64360   0.76377   0.84050   0.00000  Uiso   1.00
C1111  C     0.62439   0.72453   0.75441   0.00000  Uiso   1.00
C1112  C     0.65993   0.74280   0.75645   0.00000  Uiso   1.00
C1113  C     0.55970   0.70690   0.79391   0.00000  Uiso   1.00
C1114  C     0.59686   0.72721   0.79416   0.00000  Uiso   1.00
C1115  C     0.66872   0.76383   0.79933   0.00000  Uiso   1.00
C1116  C     0.70161   0.79092   0.54241   0.00000  Uiso   1.00
C1117  C     0.65786   0.74355   0.50707   0.00000  Uiso   1.00
C1118  C     0.62502   0.72027   0.50892   0.00000  Uiso   1.00
C1119  C     0.61642   0.72891   0.99392   0.00000  Uiso   1.00
C1120  C     0.64982   0.75081   0.99397   0.00000  Uiso   1.00
C1121  C     0.62557   0.88857   0.12893   0.00000  Uiso   1.00
C1122  C     0.59138   0.90995   0.13055   0.00000  Uiso   1.00
C1123  C     0.69106   0.86819   0.16760   0.00000  Uiso   1.00
C1124  C     0.65270   0.88885   0.16802   0.00000  Uiso   1.00
C1125  C     0.54964   0.95777   0.17237   0.00000  Uiso   1.00
C1126  C     0.58409   0.93422   0.17207   0.00000  Uiso   1.00
C1127  C     0.64413   0.91156   0.20975   0.00000  Uiso   1.00
C1128  C     0.61128   0.93474   0.21004   0.00000  Uiso   1.00
C1129  C     0.63195   0.89558   0.37322   0.00000  Uiso   1.00
C1130  C     0.59824   0.91434   0.37391   0.00000  Uiso   1.00
C1131  C     0.69276   0.87155   0.41723   0.00000  Uiso   1.00
C1132  C     0.65647   0.89299   0.41596   0.00000  Uiso   1.00
C1133  C     0.55170   0.95427   0.42017   0.00000  Uiso   1.00
C1134  C     0.58639   0.93088   0.41950   0.00000  Uiso   1.00
C1135  C     0.64361   0.90686   0.46336   0.00000  Uiso   1.00
C1136  C     0.60774   0.92586   0.46443   0.00000  Uiso   1.00
C1137  C     0.63491   0.89798   0.63067   0.00000  Uiso   1.00
C1138  C     0.60079   0.91804   0.63457   0.00000  Uiso   1.00
C1139  C     0.69598   0.87269   0.66901   0.00000  Uiso   1.00
C1140  C     0.66130   0.89705   0.67054   0.00000  Uiso   1.00
C1141  C     0.55633   0.95907   0.68033   0.00000  Uiso   1.00
C1142  C     0.59160   0.93534   0.67929   0.00000  Uiso   1.00
C1143  C     0.65120   0.91497   0.71712   0.00000  Uiso   1.00
C1144  C     0.61664   0.93254   0.72087   0.00000  Uiso   1.00
C1145  C     0.62368   0.88719   0.87344   0.00000  Uiso   1.00
C1146  C     0.58939   0.90703   0.87640   0.00000  Uiso   1.00
C1147  C     0.68871   0.86763   0.91707   0.00000  Uiso   1.00
C1148  C     0.64871   0.88676   0.91677   0.00000  Uiso   1.00
C1149  C     0.54441   0.95311   0.91742   0.00000  Uiso   1.00
C1150  C     0.57906   0.92716   0.91963   0.00000  Uiso   1.00
C1151  C     0.64223   0.91075   0.95607   0.00000  Uiso   1.00
C1152  C     0.60806   0.93303   0.95828   0.00000  Uiso   1.00
C1153  C     0.90439   0.08441   0.00768   0.00000  Uiso   1.00
C1154  C     0.80761   0.12817   0.04369   0.00000  Uiso   1.00
C1155  C     0.84450   0.10632   0.04613   0.00000  Uiso   1.00
C1156  C     0.94825   0.04278   0.05136   0.00000  Uiso   1.00
C1157  C     0.91445   0.06602   0.05134   0.00000  Uiso   1.00
C1158  C     0.85191   0.08532   0.08814   0.00000  Uiso   1.00
C1159  C     0.88711   0.06595   0.09197   0.00000  Uiso   1.00
C1160  C     0.86925   0.10506   0.24919   0.00000  Uiso   1.00
C1161  C     0.90550   0.08774   0.25453   0.00000  Uiso   1.00
C1162  C     0.80639   0.12699   0.29114   0.00000  Uiso   1.00
C1163  C     0.84217   0.10381   0.29100   0.00000  Uiso   1.00
C1164  C     0.95218   0.04904   0.30078   0.00000  Uiso   1.00
C1165  C     0.91658   0.07081   0.30045   0.00000  Uiso   1.00
C1166  C     0.85031   0.08225   0.33302   0.00000  Uiso   1.00
C1167  C     0.88867   0.06790   0.33983   0.00000  Uiso   1.00
C1168  C     0.87258   0.10789   0.00645   0.00000  Uiso   1.00
C1169  C     0.80675   0.12242   0.54629   0.00000  Uiso   1.00
C1170  C     0.84592   0.10449   0.54663   0.00000  Uiso   1.00
C1171  C     0.95479   0.04749   0.54663   0.00000  Uiso   1.00
C1172  C     0.91971   0.07209   0.54682   0.00000  Uiso   1.00
C1173  C     0.85945   0.08872   0.59046   0.00000  Uiso   1.00
C1174  C     0.89583   0.07333   0.59284   0.00000  Uiso   1.00
C1175  C     0.86939   0.10976   0.75266   0.00000  Uiso   1.00
C1176  C     0.90244   0.08805   0.75472   0.00000  Uiso   1.00
C1177  C     0.80685   0.13122   0.79688   0.00000  Uiso   1.00
C1178  C     0.84355   0.10816   0.79540   0.00000  Uiso   1.00
C1179  C     0.94941   0.04528   0.79741   0.00000  Uiso   1.00
C1180  C     0.91476   0.06910   0.79820   0.00000  Uiso   1.00
C1181  C     0.85256   0.08590   0.83566   0.00000  Uiso   1.00
C1182  C     0.88848   0.06897   0.83882   0.00000  Uiso   1.00
C1183  C     0.87152   0.10688   0.50205   0.00000  Uiso   1.00
C1184  C     0.90742   0.09108   0.50435   0.00000  Uiso   1.00
C1185  C     0.79786   0.21555   0.42577   0.00000  Uiso   1.00
C1186  C     0.88580   0.25984   0.21642   0.00000  Uiso   1.00
C1187  C     0.84982   0.24392   0.21916   0.00000  Uiso   1.00
C1188  C     0.87490   0.28065   0.13218   0.00000  Uiso   1.00
C1189  C     0.83745   0.26440   0.13393   0.00000  Uiso   1.00
C1190  C     0.94088   0.29223   0.17616   0.00000  Uiso   1.00
C1191  C     0.90008   0.27728   0.17392   0.00000  Uiso   1.00
C1192  C     0.82670   0.24380   0.17532   0.00000  Uiso   1.00
C1193  C     0.94763   0.37946   0.04902   0.00000  Uiso   1.00
C1194  C     0.89286   0.25623   0.46736   0.00000  Uiso   1.00
C1195  C     0.85709   0.24004   0.46848   0.00000  Uiso   1.00
C1196  C     0.87918   0.27721   0.38334   0.00000  Uiso   1.00
C1197  C     0.84275   0.25945   0.38443   0.00000  Uiso   1.00
C1198  C     0.93925   0.29765   0.42571   0.00000  Uiso   1.00
C1199  C     0.90386   0.27553   0.42453   0.00000  Uiso   1.00
C1200  C     0.83133   0.23921   0.42593   0.00000  Uiso   1.00
C1201  C     0.94904   0.37906   0.30062   0.00000  Uiso   1.00
C1202  C     0.79396   0.21823   0.17351   0.00000  Uiso   1.00
C1203  C     0.79070   0.22167   0.67448   0.00000  Uiso   1.00
C1204  C     0.88689   0.26216   0.71483   0.00000  Uiso   1.00
C1205  C     0.85231   0.24314   0.71641   0.00000  Uiso   1.00
C1206  C     0.87234   0.28484   0.63221   0.00000  Uiso   1.00
C1207  C     0.83565   0.26697   0.63628   0.00000  Uiso   1.00
C1208  C     0.93719   0.30162   0.67390   0.00000  Uiso   1.00
C1209  C     0.89894   0.28192   0.67246   0.00000  Uiso   1.00
C1210  C     0.79676   0.21317   0.92638   0.00000  Uiso   1.00
C1211  C     0.82599   0.24509   0.67573   0.00000  Uiso   1.00
C1212  C     0.94936   0.37691   0.55225   0.00000  Uiso   1.00
C1213  C     0.89348   0.25381   0.96546   0.00000  Uiso   1.00
C1214  C     0.85992   0.23274   0.96604   0.00000  Uiso   1.00
C1215  C     0.87653   0.27679   0.88174   0.00000  Uiso   1.00
C1216  C     0.84127   0.25758   0.88448   0.00000  Uiso   1.00
C1217  C     0.93988   0.29608   0.92298   0.00000  Uiso   1.00
C1218  C     0.90331   0.27510   0.92301   0.00000  Uiso   1.00
C1219  C     0.83115   0.23538   0.92728   0.00000  Uiso   1.00
C1220  C     0.95013   0.37777   0.79973   0.00000  Uiso   1.00
C1221  C     0.90463   0.42355   0.00458   0.00000  Uiso   1.00
C1222  C     0.89652   0.59008   0.46357   0.00000  Uiso   1.00
C1223  C     0.83983   0.59762   0.38380   0.00000  Uiso   1.00
C1224  C     0.84057   0.59736   0.12846   0.00000  Uiso   1.00
C1225  C     0.85320   0.42132   0.34103   0.00000  Uiso   1.00
C1226  C     0.83272   0.57492   0.42912   0.00000  Uiso   1.00
C1227  C     0.85473   0.57877   0.21556   0.00000  Uiso   1.00
C1228  C     0.81081   0.46569   0.04924   0.00000  Uiso   1.00
C1229  C     0.84737   0.44553   0.04875   0.00000  Uiso   1.00
C1230  C     0.91549   0.40553   0.30375   0.00000  Uiso   1.00
C1231  C     0.86127   0.43124   0.09458   0.00000  Uiso   1.00
C1232  C     0.79748   0.55004   0.42853   0.00000  Uiso   1.00
C1233  C     0.79542   0.55513   0.17284   0.00000  Uiso   1.00
C1234  C     0.82897   0.58052   0.17345   0.00000  Uiso   1.00
C1235  C     0.87063   0.44633   0.25795   0.00000  Uiso   1.00
C1236  C     0.90451   0.42495   0.25996   0.00000  Uiso   1.00
C1237  C     0.86009   0.57380   0.46776   0.00000  Uiso   1.00
C1238  C     0.80728   0.46253   0.29699   0.00000  Uiso   1.00
C1239  C     0.84315   0.44391   0.29930   0.00000  Uiso   1.00
C1240  C     0.87125   0.44422   0.00468   0.00000  Uiso   1.00
C1241  C     0.91523   0.40485   0.04964   0.00000  Uiso   1.00
C1242  C     0.89147   0.59436   0.21130   0.00000  Uiso   1.00
C1243  C     0.89746   0.41182   0.09514   0.00000  Uiso   1.00
C1244  C     0.89003   0.40444   0.34364   0.00000  Uiso   1.00
C1245  C     0.84258   0.43761   0.79614   0.00000  Uiso   1.00
C1246  C     0.84993   0.58353   0.88028   0.00000  Uiso   1.00
C1247  C     0.84128   0.56360   0.91981   0.00000  Uiso   1.00
C1248  C     0.85300   0.41610   0.83679   0.00000  Uiso   1.00
C1249  C     0.84379   0.59207   0.62934   0.00000  Uiso   1.00
C1250  C     0.85997   0.57408   0.71581   0.00000  Uiso   1.00
C1251  C     0.80620   0.46054   0.55355   0.00000  Uiso   1.00
C1252  C     0.84459   0.44077   0.55301   0.00000  Uiso   1.00
C1253  C     0.80379   0.54232   0.91900   0.00000  Uiso   1.00
C1254  C     0.85474   0.42003   0.59532   0.00000  Uiso   1.00
C1255  C     0.90205   0.58045   0.95967   0.00000  Uiso   1.00
C1256  C     0.79995   0.54658   0.67396   0.00000  Uiso   1.00
C1257  C     0.83458   0.57239   0.67334   0.00000  Uiso   1.00
C1258  C     0.86961   0.44276   0.75712   0.00000  Uiso   1.00
C1259  C     0.90336   0.42097   0.75555   0.00000  Uiso   1.00
C1260  C     0.86650   0.56306   0.96084   0.00000  Uiso   1.00
C1261  C     0.80448   0.45661   0.79336   0.00000  Uiso   1.00
C1262  C     0.86899   0.43874   0.51084   0.00000  Uiso   1.00
C1263  C     0.89142   0.40151   0.84086   0.00000  Uiso   1.00
C1264  C     0.89380   0.59526   0.71291   0.00000  Uiso   1.00
C1265  C     0.89066   0.40160   0.59601   0.00000  Uiso   1.00
C1266  C     0.90283   0.41934   0.51126   0.00000  Uiso   1.00
C1267  C     0.91558   0.40099   0.79847   0.00000  Uiso   1.00
C1268  C     0.91274   0.59965   0.91676   0.00000  Uiso   1.00
C1269  C     0.91543   0.40101   0.55415   0.00000  Uiso   1.00
C1270  C     0.87676   0.61354   0.38123   0.00000  Uiso   1.00
C1271  C     0.90221   0.61382   0.16830   0.00000  Uiso   1.00
C1272  C     0.80415   0.79304   0.04051   0.00000  Uiso   1.00
C1273  C     0.80496   0.79499   0.29374   0.00000  Uiso   1.00
C1274  C     0.94074   0.63384   0.16794   0.00000  Uiso   1.00
C1275  C     0.87726   0.61475   0.12566   0.00000  Uiso   1.00
C1276  C     0.83822   0.76821   0.03958   0.00000  Uiso   1.00
C1277  C     0.94739   0.71156   0.04359   0.00000  Uiso   1.00
C1278  C     0.91106   0.73347   0.04466   0.00000  Uiso   1.00
C1279  C     0.84453   0.74355   0.07850   0.00000  Uiso   1.00
C1280  C     0.88177   0.72697   0.08061   0.00000  Uiso   1.00
C1281  C     0.94382   0.62801   0.41988   0.00000  Uiso   1.00
C1282  C     0.85954   0.76438   0.24702   0.00000  Uiso   1.00
C1283  C     0.89384   0.74306   0.24853   0.00000  Uiso   1.00
C1284  C     0.84051   0.77295   0.29396   0.00000  Uiso   1.00
C1285  C     0.94617   0.70728   0.29632   0.00000  Uiso   1.00
C1286  C     0.90912   0.72897   0.29398   0.00000  Uiso   1.00
C1287  C     0.85355   0.75767   0.34025   0.00000  Uiso   1.00
C1288  C     0.88851   0.73887   0.34035   0.00000  Uiso   1.00
C1289  C     0.90525   0.60944   0.42021   0.00000  Uiso   1.00
C1290  C     0.86756   0.77567   0.00227   0.00000  Uiso   1.00
C1291  C     0.90329   0.75670   0.00418   0.00000  Uiso   1.00
C1292  C     0.87612   0.61614   0.62964   0.00000  Uiso   1.00
C1293  C     0.90283   0.61619   0.67012   0.00000  Uiso   1.00
C1294  C     0.93958   0.63566   0.66844   0.00000  Uiso   1.00
C1295  C     0.90152   0.75040   0.50388   0.00000  Uiso   1.00
C1296  C     0.84320   0.77619   0.54317   0.00000  Uiso   1.00
C1297  C     0.94401   0.70443   0.54493   0.00000  Uiso   1.00
C1298  C     0.90792   0.72736   0.54332   0.00000  Uiso   1.00
C1299  C     0.84900   0.75162   0.58151   0.00000  Uiso   1.00
C1300  C     0.88168   0.72827   0.58316   0.00000  Uiso   1.00
C1301  C     0.94658   0.62541   0.91912   0.00000  Uiso   1.00
C1302  C     0.86957   0.77332   0.74995   0.00000  Uiso   1.00
C1303  C     0.90251   0.75086   0.75322   0.00000  Uiso   1.00
C1304  C     0.84144   0.77074   0.78972   0.00000  Uiso   1.00
C1305  C     0.94643   0.70786   0.79717   0.00000  Uiso   1.00
C1306  C     0.90968   0.72878   0.79513   0.00000  Uiso   1.00
C1307  C     0.85082   0.75084   0.83323   0.00000  Uiso   1.00
C1308  C     0.88365   0.72951   0.83478   0.00000  Uiso   1.00
C1309  C     0.88477   0.60337   0.87856   0.00000  Uiso   1.00
C1310  C     0.80626   0.79713   0.53994   0.00000  Uiso   1.00
C1311  C     0.80764   0.79315   0.79007   0.00000  Uiso   1.00
C1312  C     0.87020   0.77546   0.50313   0.00000  Uiso   1.00
C1313  C     0.89228   0.92197   0.21893   0.00000  Uiso   1.00
C1314  C     0.85712   0.90205   0.21479   0.00000  Uiso   1.00
C1315  C     0.87951   0.94570   0.13417   0.00000  Uiso   1.00
C1316  C     0.84556   0.92583   0.13185   0.00000  Uiso   1.00
C1317  C     0.94109   0.96636   0.17919   0.00000  Uiso   1.00
C1318  C     0.90264   0.94513   0.17832   0.00000  Uiso   1.00
C1319  C     0.80038   0.87908   0.16601   0.00000  Uiso   1.00
C1320  C     0.83423   0.90269   0.17258   0.00000  Uiso   1.00
C1321  C     0.89277   0.92700   0.47410   0.00000  Uiso   1.00
C1322  C     0.85899   0.90602   0.47399   0.00000  Uiso   1.00
C1323  C     0.87550   0.95125   0.38982   0.00000  Uiso   1.00
C1324  C     0.84014   0.93112   0.39267   0.00000  Uiso   1.00
C1325  C     0.94104   0.96672   0.42846   0.00000  Uiso   1.00
C1326  C     0.90061   0.95065   0.43232   0.00000  Uiso   1.00
C1327  C     0.79744   0.88548   0.42477   0.00000  Uiso   1.00
C1328  C     0.83122   0.90889   0.43241   0.00000  Uiso   1.00
C1329  C     0.89477   0.92323   0.71054   0.00000  Uiso   1.00
C1330  C     0.86070   0.90312   0.71017   0.00000  Uiso   1.00
C1331  C     0.87594   0.94691   0.62729   0.00000  Uiso   1.00
C1332  C     0.84157   0.92612   0.62705   0.00000  Uiso   1.00
C1333  C     0.93983   0.96690   0.66948   0.00000  Uiso   1.00
C1334  C     0.90204   0.94721   0.67023   0.00000  Uiso   1.00
C1335  C     0.80035   0.87952   0.66592   0.00000  Uiso   1.00
C1336  C     0.83621   0.90300   0.66740   0.00000  Uiso   1.00
C1337  C     0.89121   0.93382   0.96586   0.00000  Uiso   1.00
C1338  C     0.85511   0.91439   0.96648   0.00000  Uiso   1.00
C1339  C     0.87920   0.95236   0.88038   0.00000  Uiso   1.00
C1340  C     0.84280   0.93374   0.87838   0.00000  Uiso   1.00
C1341  C     0.94361   0.96695   0.92319   0.00000  Uiso   1.00
C1342  C     0.90585   0.95010   0.92228   0.00000  Uiso   1.00
C1343  C     0.79872   0.88657   0.91632   0.00000  Uiso   1.00
C1344  C     0.83137   0.91360   0.92223   0.00000  Uiso   1.00
O1345  O     0.21730   0.13236   0.25936   0.00000  Uiso   1.00
O1346  O     0.03983   0.03322   0.00500   0.00000  Uiso   1.00
O1347  O     0.21120   0.13678   0.34609   0.00000  Uiso   1.00
O1348  O     0.21936   0.12769   0.00633   0.00000  Uiso   1.00
O1349  O     0.20566   0.19267   0.38085   0.00000  Uiso   1.00
O1350  O     0.04320   0.02940   0.34041   0.00000  Uiso   1.00
O1351  O     0.21450   0.13572   0.09463   0.00000  Uiso   1.00
O1352  O     0.03997   0.03287   0.09339   0.00000  Uiso   1.00
O1353  O     0.20495   0.19587   0.20882   0.00000  Uiso   1.00
O1354  O     0.04241   0.02688   0.25228   0.00000  Uiso   1.00
O1355  O     0.20702   0.19379   0.46816   0.00000  Uiso   1.00
O1356  O     0.21196   0.13670   0.75165   0.00000  Uiso   1.00
O1357  O     0.21803   0.13013   0.50428   0.00000  Uiso   1.00
O1358  O     0.21170   0.13906   0.83927   0.00000  Uiso   1.00
O1359  O     0.04728   0.02862   0.50411   0.00000  Uiso   1.00
O1360  O     0.21797   0.13404   0.58880   0.00000  Uiso   1.00
O1361  O     0.04475   0.02924   0.75290   0.00000  Uiso   1.00
O1362  O     0.04216   0.03047   0.59022   0.00000  Uiso   1.00
O1363  O     0.04249   0.03311   0.83927   0.00000  Uiso   1.00
O1364  O     0.20446   0.19367   0.96906   0.00000  Uiso   1.00
O1365  O     0.20455   0.19085   0.71060   0.00000  Uiso   1.00
O1366  O     0.20625   0.19177   0.62441   0.00000  Uiso   1.00
O1367  O     0.04032   0.36006   0.25244   0.00000  Uiso   1.00
O1368  O     0.03771   0.35838   0.09786   0.00000  Uiso   1.00
O1369  O     0.04212   0.35812   0.33983   0.00000  Uiso   1.00
O1370  O     0.03056   0.29307   0.46888   0.00000  Uiso   1.00
O1371  O     0.03641   0.29554   0.38198   0.00000  Uiso   1.00
O1372  O     0.03572   0.29763   0.21041   0.00000  Uiso   1.00
O1373  O     0.02956   0.29446   0.12455   0.00000  Uiso   1.00
O1374  O     0.21443   0.20518   0.12406   0.00000  Uiso   1.00
O1375  O     0.03700   0.35836   0.01245   0.00000  Uiso   1.00
O1376  O     0.04154   0.35805   0.75743   0.00000  Uiso   1.00
O1377  O     0.03999   0.36197   0.84430   0.00000  Uiso   1.00
O1378  O     0.03278   0.29603   0.97737   0.00000  Uiso   1.00
O1379  O     0.03902   0.29823   0.88836   0.00000  Uiso   1.00
O1380  O     0.03021   0.29447   0.62847   0.00000  Uiso   1.00
O1381  O     0.04045   0.36614   0.59133   0.00000  Uiso   1.00
O1382  O     0.03078   0.29252   0.71676   0.00000  Uiso   1.00
O1383  O     0.04175   0.36004   0.50418   0.00000  Uiso   1.00
O1384  O     0.21041   0.20032   0.88342   0.00000  Uiso   1.00
O1385  O     0.21237   0.46737   0.34262   0.00000  Uiso   1.00
O1386  O     0.20934   0.46947   0.08898   0.00000  Uiso   1.00
O1387  O     0.21285   0.46170   0.25464   0.00000  Uiso   1.00
O1388  O     0.21127   0.46241   0.00255   0.00000  Uiso   1.00
O1389  O     0.20879   0.52448   0.37726   0.00000  Uiso   1.00
O1390  O     0.20959   0.53143   0.12389   0.00000  Uiso   1.00
O1391  O     0.20355   0.52023   0.20997   0.00000  Uiso   1.00
O1392  O     0.20921   0.53081   0.46673   0.00000  Uiso   1.00
O1393  O     0.20856   0.52605   0.71058   0.00000  Uiso   1.00
O1394  O     0.21002   0.46660   0.75038   0.00000  Uiso   1.00
O1395  O     0.20901   0.46996   0.83615   0.00000  Uiso   1.00
O1396  O     0.20684   0.52521   0.62565   0.00000  Uiso   1.00
O1397  O     0.21049   0.53128   0.87546   0.00000  Uiso   1.00
O1398  O     0.21419   0.46620   0.59004   0.00000  Uiso   1.00
O1399  O     0.20679   0.52336   0.96204   0.00000  Uiso   1.00
O1400  O     0.21468   0.46845   0.50222   0.00000  Uiso   1.00
O1401  O     0.04159   0.69575   0.25169   0.00000  Uiso   1.00
O1402  O     0.03445   0.62905   0.46290   0.00000  Uiso   1.00
O1403  O     0.03690   0.63223   0.37552   0.00000  Uiso   1.00
O1404  O     0.03880   0.69905   0.33844   0.00000  Uiso   1.00
O1405  O     0.04207   0.69832   0.09076   0.00000  Uiso   1.00
O1406  O     0.21348   0.79747   0.34539   0.00000  Uiso   1.00
O1407  O     0.03738   0.63017   0.12966   0.00000  Uiso   1.00
O1408  O     0.03278   0.62621   0.21574   0.00000  Uiso   1.00
O1409  O     0.21657   0.79519   0.25504   0.00000  Uiso   1.00
O1410  O     0.03573   0.70225   0.00313   0.00000  Uiso   1.00
O1411  O     0.21900   0.79952   0.09179   0.00000  Uiso   1.00
O1412  O     0.03965   0.69975   0.74849   0.00000  Uiso   1.00
O1413  O     0.03688   0.63305   0.96337   0.00000  Uiso   1.00
O1414  O     0.03995   0.63454   0.87792   0.00000  Uiso   1.00
O1415  O     0.04254   0.69602   0.50259   0.00000  Uiso   1.00
O1416  O     0.04110   0.69605   0.83473   0.00000  Uiso   1.00
O1417  O     0.03272   0.62808   0.62913   0.00000  Uiso   1.00
O1418  O     0.03577   0.63098   0.71427   0.00000  Uiso   1.00
O1419  O     0.03466   0.70251   0.58878   0.00000  Uiso   1.00
O1420  O     0.21852   0.79496   0.84424   0.00000  Uiso   1.00
O1421  O     0.20653   0.85915   0.38399   0.00000  Uiso   1.00
O1422  O     0.20385   0.85433   0.46914   0.00000  Uiso   1.00
O1423  O     0.03644   0.96193   0.47199   0.00000  Uiso   1.00
O1424  O     0.03665   0.96289   0.13048   0.00000  Uiso   1.00
O1425  O     0.20387   0.85663   0.13002   0.00000  Uiso   1.00
O1426  O     0.03280   0.96098   0.21774   0.00000  Uiso   1.00
O1427  O     0.20532   0.85549   0.21836   0.00000  Uiso   1.00
O1428  O     0.03560   0.96281   0.38294   0.00000  Uiso   1.00
O1429  O     0.21149   0.80364   0.00255   0.00000  Uiso   1.00
O1430  O     0.20856   0.86022   0.96419   0.00000  Uiso   1.00
O1431  O     0.03701   0.96565   0.96773   0.00000  Uiso   1.00
O1432  O     0.03693   0.96474   0.62796   0.00000  Uiso   1.00
O1433  O     0.21018   0.86130   0.62864   0.00000  Uiso   1.00
O1434  O     0.03494   0.96226   0.71472   0.00000  Uiso   1.00
O1435  O     0.20640   0.85819   0.71490   0.00000  Uiso   1.00
O1436  O     0.20792   0.85923   0.87711   0.00000  Uiso   1.00
O1437  O     0.03939   0.96495   0.88067   0.00000  Uiso   1.00
O1438  O     0.20958   0.80075   0.50773   0.00000  Uiso   1.00
O1439  O     0.21228   0.80362   0.75857   0.00000  Uiso   1.00
O1440  O     0.20895   0.80233   0.59558   0.00000  Uiso   1.00
O1441  O     0.46372   0.03614   0.25533   0.00000  Uiso   1.00
O1442  O     0.46180   0.03365   0.34501   0.00000  Uiso   1.00
O1443  O     0.28672   0.13716   0.33567   0.00000  Uiso   1.00
O1444  O     0.46503   0.04300   0.00230   0.00000  Uiso   1.00
O1445  O     0.29524   0.14737   0.08862   0.00000  Uiso   1.00
O1446  O     0.46205   0.03585   0.09026   0.00000  Uiso   1.00
O1447  O     0.29185   0.13994   0.24948   0.00000  Uiso   1.00
O1448  O     0.29341   0.14058   0.00207   0.00000  Uiso   1.00
O1449  O     0.46618   0.03651   0.50393   0.00000  Uiso   1.00
O1450  O     0.46475   0.03982   0.75217   0.00000  Uiso   1.00
O1451  O     0.46537   0.03600   0.84014   0.00000  Uiso   1.00
O1452  O     0.29481   0.14508   0.84329   0.00000  Uiso   1.00
O1453  O     0.29533   0.13574   0.59032   0.00000  Uiso   1.00
O1454  O     0.28781   0.13857   0.75753   0.00000  Uiso   1.00
O1455  O     0.46842   0.03827   0.59349   0.00000  Uiso   1.00
O1456  O     0.29380   0.13775   0.50393   0.00000  Uiso   1.00
O1457  O     0.27795   0.20793   0.37732   0.00000  Uiso   1.00
O1458  O     0.46544   0.36772   0.34271   0.00000  Uiso   1.00
O1459  O     0.28343   0.20209   0.21845   0.00000  Uiso   1.00
O1460  O     0.45634   0.31056   0.46641   0.00000  Uiso   1.00
O1461  O     0.45887   0.30811   0.21187   0.00000  Uiso   1.00
O1462  O     0.46293   0.36753   0.25666   0.00000  Uiso   1.00
O1463  O     0.46054   0.30475   0.12616   0.00000  Uiso   1.00
O1464  O     0.45971   0.30612   0.37961   0.00000  Uiso   1.00
O1465  O     0.46050   0.36389   0.08977   0.00000  Uiso   1.00
O1466  O     0.28512   0.20653   0.13067   0.00000  Uiso   1.00
O1467  O     0.28805   0.20128   0.46300   0.00000  Uiso   1.00
O1468  O     0.45909   0.36365   0.00158   0.00000  Uiso   1.00
O1469  O     0.28480   0.20367   0.88013   0.00000  Uiso   1.00
O1470  O     0.46468   0.37026   0.83823   0.00000  Uiso   1.00
O1471  O     0.28886   0.20264   0.62770   0.00000  Uiso   1.00
O1472  O     0.45715   0.30818   0.87803   0.00000  Uiso   1.00
O1473  O     0.45812   0.30934   0.96554   0.00000  Uiso   1.00
O1474  O     0.45690   0.30788   0.71708   0.00000  Uiso   1.00
O1475  O     0.46470   0.36661   0.50704   0.00000  Uiso   1.00
O1476  O     0.46254   0.36508   0.75245   0.00000  Uiso   1.00
O1477  O     0.45675   0.30756   0.62890   0.00000  Uiso   1.00
O1478  O     0.46007   0.35715   0.59191   0.00000  Uiso   1.00
O1479  O     0.28709   0.20168   0.96788   0.00000  Uiso   1.00
O1480  O     0.28281   0.20867   0.71486   0.00000  Uiso   1.00
O1481  O     0.29070   0.47386   0.08328   0.00000  Uiso   1.00
O1482  O     0.27942   0.53710   0.12582   0.00000  Uiso   1.00
O1483  O     0.28491   0.53750   0.46160   0.00000  Uiso   1.00
O1484  O     0.28927   0.46929   0.33564   0.00000  Uiso   1.00
O1485  O     0.28715   0.46615   0.24851   0.00000  Uiso   1.00
O1486  O     0.28127   0.53317   0.21317   0.00000  Uiso   1.00
O1487  O     0.28523   0.53824   0.37320   0.00000  Uiso   1.00
O1488  O     0.29269   0.46793   0.59201   0.00000  Uiso   1.00
O1489  O     0.28302   0.53673   0.63447   0.00000  Uiso   1.00
O1490  O     0.28305   0.53317   0.95984   0.00000  Uiso   1.00
O1491  O     0.29323   0.47363   0.83903   0.00000  Uiso   1.00
O1492  O     0.29428   0.47034   0.50349   0.00000  Uiso   1.00
O1493  O     0.28436   0.53296   0.72264   0.00000  Uiso   1.00
O1494  O     0.28663   0.46628   0.75472   0.00000  Uiso   1.00
O1495  O     0.28530   0.53473   0.87423   0.00000  Uiso   1.00
O1496  O     0.28536   0.46563   0.99617   0.00000  Uiso   1.00
O1497  O     0.45474   0.64791   0.37590   0.00000  Uiso   1.00
O1498  O     0.46993   0.70116   0.34278   0.00000  Uiso   1.00
O1499  O     0.45769   0.63613   0.12632   0.00000  Uiso   1.00
O1500  O     0.46256   0.69942   0.25472   0.00000  Uiso   1.00
O1501  O     0.45864   0.63938   0.46186   0.00000  Uiso   1.00
O1502  O     0.45649   0.63868   0.21391   0.00000  Uiso   1.00
O1503  O     0.46760   0.70000   0.09545   0.00000  Uiso   1.00
O1504  O     0.46144   0.69568   0.00730   0.00000  Uiso   1.00
O1505  O     0.28986   0.79859   0.01130   0.00000  Uiso   1.00
O1506  O     0.46008   0.63644   0.87519   0.00000  Uiso   1.00
O1507  O     0.46933   0.70377   0.84327   0.00000  Uiso   1.00
O1508  O     0.46173   0.69529   0.58790   0.00000  Uiso   1.00
O1509  O     0.46824   0.70641   0.75991   0.00000  Uiso   1.00
O1510  O     0.45525   0.64174   0.71596   0.00000  Uiso   1.00
O1511  O     0.45688   0.63819   0.96251   0.00000  Uiso   1.00
O1512  O     0.45870   0.63500   0.62707   0.00000  Uiso   1.00
O1513  O     0.28429   0.79539   0.50260   0.00000  Uiso   1.00
O1514  O     0.46481   0.69705   0.50165   0.00000  Uiso   1.00
O1515  O     0.28732   0.79703   0.59112   0.00000  Uiso   1.00
O1516  O     0.28857   0.79752   0.75339   0.00000  Uiso   1.00
O1517  O     0.28070   0.87250   0.37892   0.00000  Uiso   1.00
O1518  O     0.29179   0.80576   0.34362   0.00000  Uiso   1.00
O1519  O     0.46085   0.96743   0.38112   0.00000  Uiso   1.00
O1520  O     0.45578   0.97357   0.12848   0.00000  Uiso   1.00
O1521  O     0.28017   0.87434   0.13112   0.00000  Uiso   1.00
O1522  O     0.28219   0.87035   0.21566   0.00000  Uiso   1.00
O1523  O     0.28052   0.87187   0.46555   0.00000  Uiso   1.00
O1524  O     0.45547   0.97695   0.21535   0.00000  Uiso   1.00
O1525  O     0.45144   0.97467   0.46609   0.00000  Uiso   1.00
O1526  O     0.29446   0.80648   0.25639   0.00000  Uiso   1.00
O1527  O     0.29419   0.80304   0.09868   0.00000  Uiso   1.00
O1528  O     0.28288   0.87347   0.88316   0.00000  Uiso   1.00
O1529  O     0.45712   0.97218   0.87807   0.00000  Uiso   1.00
O1530  O     0.46323   0.96981   0.62386   0.00000  Uiso   1.00
O1531  O     0.28625   0.86875   0.71736   0.00000  Uiso   1.00
O1532  O     0.28359   0.86975   0.97066   0.00000  Uiso   1.00
O1533  O     0.46057   0.97085   0.71259   0.00000  Uiso   1.00
O1534  O     0.45459   0.97632   0.96632   0.00000  Uiso   1.00
O1535  O     0.28773   0.86480   0.62749   0.00000  Uiso   1.00
O1536  O     0.29521   0.80960   0.83871   0.00000  Uiso   1.00
O1537  O     0.70756   0.18552   0.46302   0.00000  Uiso   1.00
O1538  O     0.71379   0.13256   0.25548   0.00000  Uiso   1.00
O1539  O     0.71664   0.12565   0.00758   0.00000  Uiso   1.00
O1540  O     0.70685   0.19706   0.13041   0.00000  Uiso   1.00
O1541  O     0.53778   0.03098   0.25754   0.00000  Uiso   1.00
O1542  O     0.70572   0.19110   0.21761   0.00000  Uiso   1.00
O1543  O     0.71061   0.13451   0.09581   0.00000  Uiso   1.00
O1544  O     0.54125   0.02779   0.34374   0.00000  Uiso   1.00
O1545  O     0.54152   0.02951   0.08500   0.00000  Uiso   1.00
O1546  O     0.71463   0.13510   0.34145   0.00000  Uiso   1.00
O1547  O     0.70902   0.19603   0.37605   0.00000  Uiso   1.00
O1548  O     0.70526   0.19520   0.62571   0.00000  Uiso   1.00
O1549  O     0.54442   0.02651   0.84074   0.00000  Uiso   1.00
O1550  O     0.70212   0.18694   0.96084   0.00000  Uiso   1.00
O1551  O     0.71463   0.13101   0.75049   0.00000  Uiso   1.00
O1552  O     0.53865   0.03048   0.75228   0.00000  Uiso   1.00
O1553  O     0.71421   0.13525   0.59067   0.00000  Uiso   1.00
O1554  O     0.71259   0.13556   0.83652   0.00000  Uiso   1.00
O1555  O     0.54333   0.02875   0.58988   0.00000  Uiso   1.00
O1556  O     0.70651   0.19985   0.87639   0.00000  Uiso   1.00
O1557  O     0.70460   0.18921   0.71498   0.00000  Uiso   1.00
O1558  O     0.71470   0.13235   0.50248   0.00000  Uiso   1.00
O1559  O     0.54101   0.02815   0.50291   0.00000  Uiso   1.00
O1560  O     0.53914   0.03089   0.99822   0.00000  Uiso   1.00
O1561  O     0.53221   0.29610   0.13173   0.00000  Uiso   1.00
O1562  O     0.54095   0.36729   0.25465   0.00000  Uiso   1.00
O1563  O     0.54668   0.36046   0.34062   0.00000  Uiso   1.00
O1564  O     0.53487   0.29594   0.46549   0.00000  Uiso   1.00
O1565  O     0.53497   0.29226   0.37871   0.00000  Uiso   1.00
O1566  O     0.54091   0.36609   0.09119   0.00000  Uiso   1.00
O1567  O     0.53789   0.30205   0.21820   0.00000  Uiso   1.00
O1568  O     0.53417   0.37310   0.00385   0.00000  Uiso   1.00
O1569  O     0.53670   0.36583   0.75243   0.00000  Uiso   1.00
O1570  O     0.53903   0.36748   0.83751   0.00000  Uiso   1.00
O1571  O     0.53587   0.30122   0.96439   0.00000  Uiso   1.00
O1572  O     0.53641   0.30317   0.87677   0.00000  Uiso   1.00
O1573  O     0.54065   0.36483   0.59083   0.00000  Uiso   1.00
O1574  O     0.53539   0.29643   0.71881   0.00000  Uiso   1.00
O1575  O     0.52940   0.29088   0.63061   0.00000  Uiso   1.00
O1576  O     0.53845   0.36731   0.50390   0.00000  Uiso   1.00
O1577  O     0.71540   0.46675   0.00647   0.00000  Uiso   1.00
O1578  O     0.70656   0.52461   0.12959   0.00000  Uiso   1.00
O1579  O     0.70766   0.53132   0.38119   0.00000  Uiso   1.00
O1580  O     0.72216   0.46337   0.26072   0.00000  Uiso   1.00
O1581  O     0.70676   0.52131   0.21677   0.00000  Uiso   1.00
O1582  O     0.71498   0.47173   0.34541   0.00000  Uiso   1.00
O1583  O     0.71280   0.47087   0.09386   0.00000  Uiso   1.00
O1584  O     0.70398   0.51926   0.46538   0.00000  Uiso   1.00
O1585  O     0.71461   0.46269   0.50271   0.00000  Uiso   1.00
O1586  O     0.70887   0.53101   0.63118   0.00000  Uiso   1.00
O1587  O     0.71552   0.46210   0.84283   0.00000  Uiso   1.00
O1588  O     0.71176   0.46829   0.58891   0.00000  Uiso   1.00
O1589  O     0.71166   0.52877   0.87930   0.00000  Uiso   1.00
O1590  O     0.70831   0.53161   0.71774   0.00000  Uiso   1.00
O1591  O     0.71181   0.46742   0.75699   0.00000  Uiso   1.00
O1592  O     0.70917   0.52401   0.96572   0.00000  Uiso   1.00
O1593  O     0.54102   0.69484   0.25144   0.00000  Uiso   1.00
O1594  O     0.53358   0.62596   0.46691   0.00000  Uiso   1.00
O1595  O     0.53586   0.62622   0.37956   0.00000  Uiso   1.00
O1596  O     0.71283   0.79998   0.24849   0.00000  Uiso   1.00
O1597  O     0.54357   0.69333   0.08428   0.00000  Uiso   1.00
O1598  O     0.53875   0.62808   0.12942   0.00000  Uiso   1.00
O1599  O     0.53266   0.62435   0.21909   0.00000  Uiso   1.00
O1600  O     0.54546   0.69175   0.33986   0.00000  Uiso   1.00
O1601  O     0.71729   0.79693   0.49846   0.00000  Uiso   1.00
O1602  O     0.54399   0.69940   0.75098   0.00000  Uiso   1.00
O1603  O     0.53962   0.63181   0.96760   0.00000  Uiso   1.00
O1604  O     0.53731   0.63408   0.88132   0.00000  Uiso   1.00
O1605  O     0.54634   0.69452   0.83738   0.00000  Uiso   1.00
O1606  O     0.54310   0.69565   0.59262   0.00000  Uiso   1.00
O1607  O     0.53682   0.69898   0.99907   0.00000  Uiso   1.00
O1608  O     0.53412   0.62850   0.63348   0.00000  Uiso   1.00
O1609  O     0.53691   0.63284   0.72054   0.00000  Uiso   1.00
O1610  O     0.71565   0.79641   0.74957   0.00000  Uiso   1.00
O1611  O     0.54186   0.69687   0.50615   0.00000  Uiso   1.00
O1612  O     0.53667   0.96403   0.46381   0.00000  Uiso   1.00
O1613  O     0.53740   0.96718   0.37733   0.00000  Uiso   1.00
O1614  O     0.70789   0.85938   0.46063   0.00000  Uiso   1.00
O1615  O     0.53419   0.96652   0.12944   0.00000  Uiso   1.00
O1616  O     0.70819   0.85930   0.12584   0.00000  Uiso   1.00
O1617  O     0.53749   0.97130   0.21441   0.00000  Uiso   1.00
O1618  O     0.70394   0.85703   0.21165   0.00000  Uiso   1.00
O1619  O     0.70902   0.86704   0.37429   0.00000  Uiso   1.00
O1620  O     0.70985   0.80700   0.08186   0.00000  Uiso   1.00
O1621  O     0.71196   0.80667   0.33507   0.00000  Uiso   1.00
O1622  O     0.70674   0.86016   0.96052   0.00000  Uiso   1.00
O1623  O     0.53266   0.96763   0.96217   0.00000  Uiso   1.00
O1624  O     0.70785   0.86176   0.87351   0.00000  Uiso   1.00
O1625  O     0.54230   0.96997   0.63550   0.00000  Uiso   1.00
O1626  O     0.71278   0.86739   0.62331   0.00000  Uiso   1.00
O1627  O     0.54229   0.97021   0.72326   0.00000  Uiso   1.00
O1628  O     0.70946   0.85999   0.71167   0.00000  Uiso   1.00
O1629  O     0.53283   0.96437   0.87356   0.00000  Uiso   1.00
O1630  O     0.71632   0.80075   0.99613   0.00000  Uiso   1.00
O1631  O     0.71755   0.80280   0.83713   0.00000  Uiso   1.00
O1632  O     0.71327   0.80873   0.58410   0.00000  Uiso   1.00
O1633  O     0.96176   0.03139   0.09552   0.00000  Uiso   1.00
O1634  O     0.96497   0.03656   0.25841   0.00000  Uiso   1.00
O1635  O     0.96504   0.03623   0.34334   0.00000  Uiso   1.00
O1636  O     0.79219   0.13724   0.33435   0.00000  Uiso   1.00
O1637  O     0.79196   0.13994   0.08626   0.00000  Uiso   1.00
O1638  O     0.79011   0.13616   0.24823   0.00000  Uiso   1.00
O1639  O     0.78989   0.13396   0.00107   0.00000  Uiso   1.00
O1640  O     0.96576   0.03634   0.00820   0.00000  Uiso   1.00
O1641  O     0.78840   0.19768   0.46662   0.00000  Uiso   1.00
O1642  O     0.96165   0.03098   0.75370   0.00000  Uiso   1.00
O1643  O     0.96581   0.03430   0.83902   0.00000  Uiso   1.00
O1644  O     0.79235   0.14193   0.84143   0.00000  Uiso   1.00
O1645  O     0.78691   0.12728   0.50350   0.00000  Uiso   1.00
O1646  O     0.96770   0.03497   0.50175   0.00000  Uiso   1.00
O1647  O     0.97018   0.03836   0.59061   0.00000  Uiso   1.00
O1648  O     0.79234   0.14213   0.75310   0.00000  Uiso   1.00
O1649  O     0.79587   0.14264   0.58655   0.00000  Uiso   1.00
O1650  O     0.78571   0.19833   0.96954   0.00000  Uiso   1.00
O1651  O     0.78649   0.20453   0.38151   0.00000  Uiso   1.00
O1652  O     0.96293   0.36445   0.34403   0.00000  Uiso   1.00
O1653  O     0.95898   0.30282   0.38277   0.00000  Uiso   1.00
O1654  O     0.95626   0.30130   0.22018   0.00000  Uiso   1.00
O1655  O     0.96183   0.36789   0.25809   0.00000  Uiso   1.00
O1656  O     0.95527   0.30223   0.13325   0.00000  Uiso   1.00
O1657  O     0.95233   0.30857   0.47080   0.00000  Uiso   1.00
O1658  O     0.95897   0.36600   0.09426   0.00000  Uiso   1.00
O1659  O     0.96226   0.36801   0.00479   0.00000  Uiso   1.00
O1660  O     0.78104   0.20611   0.21822   0.00000  Uiso   1.00
O1661  O     0.78236   0.20619   0.13016   0.00000  Uiso   1.00
O1662  O     0.78134   0.20218   0.88471   0.00000  Uiso   1.00
O1663  O     0.96460   0.36602   0.84293   0.00000  Uiso   1.00
O1664  O     0.95976   0.30152   0.87975   0.00000  Uiso   1.00
O1665  O     0.77955   0.21101   0.62814   0.00000  Uiso   1.00
O1666  O     0.95429   0.30710   0.71939   0.00000  Uiso   1.00
O1667  O     0.95456   0.30526   0.96690   0.00000  Uiso   1.00
O1668  O     0.96186   0.36429   0.75548   0.00000  Uiso   1.00
O1669  O     0.95360   0.31016   0.62998   0.00000  Uiso   1.00
O1670  O     0.96323   0.36647   0.59710   0.00000  Uiso   1.00
O1671  O     0.78036   0.20633   0.71792   0.00000  Uiso   1.00
O1672  O     0.96421   0.36744   0.50973   0.00000  Uiso   1.00
O1673  O     0.79439   0.47395   0.09243   0.00000  Uiso   1.00
O1674  O     0.78157   0.54459   0.12754   0.00000  Uiso   1.00
O1675  O     0.78588   0.53498   0.47039   0.00000  Uiso   1.00
O1676  O     0.79204   0.47323   0.33975   0.00000  Uiso   1.00
O1677  O     0.78623   0.53776   0.21440   0.00000  Uiso   1.00
O1678  O     0.78382   0.54095   0.38388   0.00000  Uiso   1.00
O1679  O     0.79153   0.46822   0.00651   0.00000  Uiso   1.00
O1680  O     0.79213   0.46934   0.25316   0.00000  Uiso   1.00
O1681  O     0.79268   0.47164   0.59522   0.00000  Uiso   1.00
O1682  O     0.78349   0.53861   0.62952   0.00000  Uiso   1.00
O1683  O     0.78845   0.53211   0.96449   0.00000  Uiso   1.00
O1684  O     0.79013   0.46668   0.83742   0.00000  Uiso   1.00
O1685  O     0.78941   0.46852   0.51068   0.00000  Uiso   1.00
O1686  O     0.78922   0.46802   0.74907   0.00000  Uiso   1.00
O1687  O     0.79259   0.53046   0.87445   0.00000  Uiso   1.00
O1688  O     0.78650   0.53246   0.71550   0.00000  Uiso   1.00
O1689  O     0.96068   0.69689   0.34038   0.00000  Uiso   1.00
O1690  O     0.96268   0.69654   0.25431   0.00000  Uiso   1.00
O1691  O     0.78494   0.79960   0.08309   0.00000  Uiso   1.00
O1692  O     0.96493   0.70113   0.08524   0.00000  Uiso   1.00
O1693  O     0.95869   0.63994   0.37629   0.00000  Uiso   1.00
O1694  O     0.95901   0.63746   0.46421   0.00000  Uiso   1.00
O1695  O     0.95987   0.64066   0.12618   0.00000  Uiso   1.00
O1696  O     0.95544   0.64194   0.21308   0.00000  Uiso   1.00
O1697  O     0.78540   0.79992   0.25133   0.00000  Uiso   1.00
O1698  O     0.96424   0.63394   0.87754   0.00000  Uiso   1.00
O1699  O     0.96002   0.69782   0.83972   0.00000  Uiso   1.00
O1700  O     0.96112   0.69727   0.75352   0.00000  Uiso   1.00
O1701  O     0.95869   0.69514   0.59079   0.00000  Uiso   1.00
O1702  O     0.95766   0.64089   0.71106   0.00000  Uiso   1.00
O1703  O     0.96036   0.63637   0.96242   0.00000  Uiso   1.00
O1704  O     0.95498   0.64246   0.62417   0.00000  Uiso   1.00
O1705  O     0.78850   0.79724   0.74796   0.00000  Uiso   1.00
O1706  O     0.96319   0.69648   0.50151   0.00000  Uiso   1.00
O1707  O     0.95784   0.69811   0.99943   0.00000  Uiso   1.00
O1708  O     0.78626   0.87771   0.37781   0.00000  Uiso   1.00
O1709  O     0.95657   0.97410   0.38389   0.00000  Uiso   1.00
O1710  O     0.78561   0.86656   0.46311   0.00000  Uiso   1.00
O1711  O     0.78367   0.86661   0.20756   0.00000  Uiso   1.00
O1712  O     0.95841   0.97239   0.13468   0.00000  Uiso   1.00
O1713  O     0.95642   0.97490   0.22242   0.00000  Uiso   1.00
O1714  O     0.96005   0.97434   0.47082   0.00000  Uiso   1.00
O1715  O     0.78764   0.86835   0.12130   0.00000  Uiso   1.00
O1716  O     0.79358   0.81053   0.33693   0.00000  Uiso   1.00
O1717  O     0.79298   0.80417   0.49522   0.00000  Uiso   1.00
O1718  O     0.78571   0.87784   0.87213   0.00000  Uiso   1.00
O1719  O     0.96237   0.97456   0.87961   0.00000  Uiso   1.00
O1720  O     0.78418   0.87334   0.62074   0.00000  Uiso   1.00
O1721  O     0.78719   0.87033   0.95698   0.00000  Uiso   1.00
O1722  O     0.79108   0.86283   0.70819   0.00000  Uiso   1.00
O1723  O     0.95286   0.97855   0.62463   0.00000  Uiso   1.00
O1724  O     0.95788   0.97407   0.71346   0.00000  Uiso   1.00
O1725  O     0.95588   0.97873   0.96699   0.00000  Uiso   1.00
O1726  O     0.79072   0.80933   0.58248   0.00000  Uiso   1.00
O1727  O     0.79655   0.80915   0.83216   0.00000  Uiso   1.00
O1728  O     0.79006   0.80464   0.99599   0.00000  Uiso   1.00
O1729  O     0.01250   0.01746   0.42383   0.00000  Uiso   1.00
O1730  O     0.24306   0.18996   0.04528   0.00000  Uiso   1.00
O1731  O     0.00900   0.01998   0.17660   0.00000  Uiso   1.00
O1732  O     0.24684   0.19044   0.29379   0.00000  Uiso   1.00
O1733  O     0.24815   0.14664   0.17006   0.00000  Uiso   1.00
O1734  O     0.00968   0.02372   0.92247   0.00000  Uiso   1.00
O1735  O     0.01202   0.02246   0.67214   0.00000  Uiso   1.00
O1736  O     0.24909   0.14715   0.92124   0.00000  Uiso   1.00
O1737  O     0.24950   0.19140   0.79290   0.00000  Uiso   1.00
O1738  O     0.00878   0.35311   0.42546   0.00000  Uiso   1.00
O1739  O     0.00577   0.31158   0.54805   0.00000  Uiso   1.00
O1740  O     0.01107   0.35001   0.67722   0.00000  Uiso   1.00
O1741  O     0.00233   0.30644   0.80117   0.00000  Uiso   1.00
O1742  O     0.24885   0.47527   0.91463   0.00000  Uiso   1.00
O1743  O     0.24801   0.52011   0.79073   0.00000  Uiso   1.00
O1744  O     0.01059   0.68738   0.17069   0.00000  Uiso   1.00
O1745  O     0.00430   0.64412   0.29641   0.00000  Uiso   1.00
O1746  O     0.00465   0.68788   0.41693   0.00000  Uiso   1.00
O1747  O     0.00540   0.64698   0.04890   0.00000  Uiso   1.00
O1748  O     0.00795   0.68650   0.67128   0.00000  Uiso   1.00
O1749  O     0.00490   0.64458   0.79453   0.00000  Uiso   1.00
O1750  O     0.00834   0.68849   0.92005   0.00000  Uiso   1.00
O1751  O     0.00587   0.64480   0.54579   0.00000  Uiso   1.00
O1752  O     0.24971   0.85150   0.30198   0.00000  Uiso   1.00
O1753  O     0.00606   0.98006   0.04638   0.00000  Uiso   1.00
O1754  O     0.00458   0.97748   0.30262   0.00000  Uiso   1.00
O1755  O     0.00456   0.97777   0.54888   0.00000  Uiso   1.00
O1756  O     0.00620   0.97811   0.79580   0.00000  Uiso   1.00
O1757  O     0.25870   0.14610   0.42079   0.00000  Uiso   1.00
O1758  O     0.49800   0.02010   0.42373   0.00000  Uiso   1.00
O1759  O     0.49548   0.02083   0.91869   0.00000  Uiso   1.00
O1760  O     0.26025   0.14496   0.67229   0.00000  Uiso   1.00
O1761  O     0.25422   0.18811   0.54594   0.00000  Uiso   1.00
O1762  O     0.49585   0.02266   0.67135   0.00000  Uiso   1.00
O1763  O     0.25493   0.47611   0.16704   0.00000  Uiso   1.00
O1764  O     0.25019   0.51912   0.03894   0.00000  Uiso   1.00
O1765  O     0.25323   0.52179   0.29122   0.00000  Uiso   1.00
O1766  O     0.26010   0.48074   0.41895   0.00000  Uiso   1.00
O1767  O     0.25981   0.47521   0.67099   0.00000  Uiso   1.00
O1768  O     0.26185   0.52046   0.54948   0.00000  Uiso   1.00
O1769  O     0.49917   0.68559   0.92218   0.00000  Uiso   1.00
O1770  O     0.49692   0.64564   0.79794   0.00000  Uiso   1.00
O1771  O     0.25778   0.81118   0.17571   0.00000  Uiso   1.00
O1772  O     0.25392   0.85436   0.04891   0.00000  Uiso   1.00
O1773  O     0.26170   0.80931   0.42535   0.00000  Uiso   1.00
O1774  O     0.49343   0.97735   0.29699   0.00000  Uiso   1.00
O1775  O     0.49485   0.97956   0.04423   0.00000  Uiso   1.00
O1776  O     0.26039   0.81407   0.92333   0.00000  Uiso   1.00
O1777  O     0.48852   0.98071   0.79677   0.00000  Uiso   1.00
O1778  O     0.25784   0.80870   0.67810   0.00000  Uiso   1.00
O1779  O     0.49774   0.97923   0.54965   0.00000  Uiso   1.00
O1780  O     0.25724   0.85424   0.55072   0.00000  Uiso   1.00
O1781  O     0.25782   0.85666   0.79797   0.00000  Uiso   1.00
O1782  O     0.50190   0.02361   0.17098   0.00000  Uiso   1.00
O1783  O     0.74409   0.18837   0.04338   0.00000  Uiso   1.00
O1784  O     0.74578   0.14466   0.92232   0.00000  Uiso   1.00
O1785  O     0.50618   0.35816   0.17091   0.00000  Uiso   1.00
O1786  O     0.50770   0.31340   0.04515   0.00000  Uiso   1.00
O1787  O     0.51035   0.35391   0.42292   0.00000  Uiso   1.00
O1788  O     0.50418   0.31459   0.29850   0.00000  Uiso   1.00
O1789  O     0.51114   0.35089   0.66998   0.00000  Uiso   1.00
O1790  O     0.50596   0.35634   0.91955   0.00000  Uiso   1.00
O1791  O     0.50844   0.31263   0.54686   0.00000  Uiso   1.00
O1792  O     0.50658   0.31012   0.79728   0.00000  Uiso   1.00
O1793  O     0.74982   0.51871   0.79875   0.00000  Uiso   1.00
O1794  O     0.74813   0.52174   0.54572   0.00000  Uiso   1.00
O1795  O     0.74948   0.47759   0.67314   0.00000  Uiso   1.00
O1796  O     0.50864   0.68443   0.17225   0.00000  Uiso   1.00
O1797  O     0.50291   0.64460   0.29572   0.00000  Uiso   1.00
O1798  O     0.51228   0.68584   0.42355   0.00000  Uiso   1.00
O1799  O     0.50779   0.64244   0.04584   0.00000  Uiso   1.00
O1800  O     0.50601   0.64402   0.54829   0.00000  Uiso   1.00
O1801  O     0.50188   0.68950   0.67354   0.00000  Uiso   1.00
O1802  O     0.75756   0.14516   0.41882   0.00000  Uiso   1.00
O1803  O     0.75599   0.14725   0.16917   0.00000  Uiso   1.00
O1804  O     0.75954   0.18863   0.29875   0.00000  Uiso   1.00
O1805  O     0.75313   0.18878   0.79511   0.00000  Uiso   1.00
O1806  O     0.75319   0.18877   0.54134   0.00000  Uiso   1.00
O1807  O     0.76646   0.15154   0.66920   0.00000  Uiso   1.00
O1808  O     0.99386   0.35264   0.17597   0.00000  Uiso   1.00
O1809  O     0.99926   0.31126   0.29885   0.00000  Uiso   1.00
O1810  O     0.98660   0.31256   0.05005   0.00000  Uiso   1.00
O1811  O     0.99767   0.35249   0.92764   0.00000  Uiso   1.00
O1812  O     0.76042   0.47913   0.42040   0.00000  Uiso   1.00
O1813  O     0.75638   0.52383   0.04552   0.00000  Uiso   1.00
O1814  O     0.76127   0.48169   0.17076   0.00000  Uiso   1.00
O1815  O     0.75638   0.52367   0.29803   0.00000  Uiso   1.00
O1816  O     0.75856   0.47543   0.92325   0.00000  Uiso   1.00
O1817  O     0.75506   0.81707   0.41265   0.00000  Uiso   1.00
O1818  O     0.75353   0.85957   0.28901   0.00000  Uiso   1.00
O1819  O     0.75713   0.81449   0.16594   0.00000  Uiso   1.00
O1820  O     0.75447   0.85859   0.03995   0.00000  Uiso   1.00
O1821  O     0.75250   0.81359   0.66405   0.00000  Uiso   1.00
O1822  O     0.76088   0.81832   0.91514   0.00000  Uiso   1.00
O1823  O     0.75372   0.85744   0.53897   0.00000  Uiso   1.00
O1824  O     0.75305   0.85583   0.78914   0.00000  Uiso   1.00
