data_final_Cl-Co-SABVOH01
_audit_creation_date              2022-12-15
_audit_creation_method            'Materials Studio'
_symmetry_space_group_name_H-M    'P1'
_symmetry_Int_Tables_number       1
_symmetry_cell_setting            triclinic
loop_
_symmetry_equiv_pos_as_xyz
  x,y,z
_cell_length_a                    31.5560
_cell_length_b                    34.1036
_cell_length_c                    24.4171
_cell_angle_alpha                 90.0000
_cell_angle_beta                  90.0000
_cell_angle_gamma                 90.0000
loop_
_atom_site_label
_atom_site_type_symbol
_atom_site_fract_x
_atom_site_fract_y
_atom_site_fract_z
_atom_site_U_iso_or_equiv
_atom_site_adp_type
_atom_site_occupancy
Co1    Co    0.00450   0.00041   0.35670   0.00000  Uiso   1.00
Co2    Co    0.00409   0.00207   0.10580   0.00000  Uiso   1.00
Co3    Co    0.00471   0.00059   0.23149   0.00000  Uiso   1.00
Co4    Co    0.00362   0.00122   0.48105   0.00000  Uiso   1.00
Co5    Co    0.24966   0.17224   0.23374   0.00000  Uiso   1.00
Co6    Co    0.24875   0.17312   0.98447   0.00000  Uiso   1.00
Co7    Co    0.00428   0.00564   0.85588   0.00000  Uiso   1.00
Co8    Co    0.00338   0.00505   0.73164   0.00000  Uiso   1.00
Co9    Co    0.00247   0.00202   0.60747   0.00000  Uiso   1.00
Co10   Co    0.24769   0.17097   0.85944   0.00000  Uiso   1.00
Co11   Co    0.24917   0.16966   0.73324   0.00000  Uiso   1.00
Co12   Co    0.00449   0.00644   0.98171   0.00000  Uiso   1.00
Co13   Co    0.24583   0.49861   0.23372   0.00000  Uiso   1.00
Co14   Co    0.24532   0.50065   0.10900   0.00000  Uiso   1.00
Co15   Co    0.24602   0.49432   0.48078   0.00000  Uiso   1.00
Co16   Co    0.24546   0.49658   0.35772   0.00000  Uiso   1.00
Co17   Co    0.24807   0.49781   0.73201   0.00000  Uiso   1.00
Co18   Co    0.24572   0.49949   0.98412   0.00000  Uiso   1.00
Co19   Co    0.24814   0.49841   0.60652   0.00000  Uiso   1.00
Co20   Co    0.24623   0.49901   0.85731   0.00000  Uiso   1.00
Co21   Co    0.00037   0.66898   0.48233   0.00000  Uiso   1.00
Co22   Co    0.00014   0.66593   0.10615   0.00000  Uiso   1.00
Co23   Co    0.00150   0.66950   0.60715   0.00000  Uiso   1.00
Co24   Co    0.00023   0.66909   0.85584   0.00000  Uiso   1.00
Co25   Co    0.00074   0.66948   0.73259   0.00000  Uiso   1.00
Co26   Co    0.00030   0.66883   0.98250   0.00000  Uiso   1.00
Co27   Co    0.24898   0.82944   0.23234   0.00000  Uiso   1.00
Co28   Co    0.24966   0.83054   0.10803   0.00000  Uiso   1.00
Co29   Co    0.24935   0.83215   0.73496   0.00000  Uiso   1.00
Co30   Co    0.24891   0.83294   0.98500   0.00000  Uiso   1.00
Co31   Co    0.24907   0.83367   0.85866   0.00000  Uiso   1.00
Co32   Co    0.25110   0.17399   0.11002   0.00000  Uiso   1.00
Co33   Co    0.49577   0.00181   0.10638   0.00000  Uiso   1.00
Co34   Co    0.49560   0.00363   0.23223   0.00000  Uiso   1.00
Co35   Co    0.49683   0.00187   0.35606   0.00000  Uiso   1.00
Co36   Co    0.49691   0.00295   0.48065   0.00000  Uiso   1.00
Co37   Co    0.25001   0.17035   0.48492   0.00000  Uiso   1.00
Co38   Co    0.25047   0.17157   0.35940   0.00000  Uiso   1.00
Co39   Co    0.49882   0.00323   0.98145   0.00000  Uiso   1.00
Co40   Co    0.25043   0.17100   0.60898   0.00000  Uiso   1.00
Co41   Co    0.49850   0.00337   0.60603   0.00000  Uiso   1.00
Co42   Co    0.49843   0.00563   0.72891   0.00000  Uiso   1.00
Co43   Co    0.49914   0.00182   0.85528   0.00000  Uiso   1.00
Co44   Co    0.49884   0.66198   0.10758   0.00000  Uiso   1.00
Co45   Co    0.49963   0.66348   0.23170   0.00000  Uiso   1.00
Co46   Co    0.49790   0.66251   0.35870   0.00000  Uiso   1.00
Co47   Co    0.49947   0.66482   0.48212   0.00000  Uiso   1.00
Co48   Co    0.49971   0.66393   0.60736   0.00000  Uiso   1.00
Co49   Co    0.25190   0.83024   0.48479   0.00000  Uiso   1.00
Co50   Co    0.25066   0.83056   0.35908   0.00000  Uiso   1.00
Co51   Co    0.25054   0.83180   0.61088   0.00000  Uiso   1.00
Co52   Co    0.50063   0.33295   0.35913   0.00000  Uiso   1.00
Co53   Co    0.50050   0.33170   0.48366   0.00000  Uiso   1.00
Co54   Co    0.50145   0.33163   0.10848   0.00000  Uiso   1.00
Co55   Co    0.50079   0.33361   0.23298   0.00000  Uiso   1.00
Co56   Co    0.50137   0.33460   0.98329   0.00000  Uiso   1.00
Co57   Co    0.50154   0.33286   0.60918   0.00000  Uiso   1.00
Co58   Co    0.50247   0.33306   0.73455   0.00000  Uiso   1.00
Co59   Co    0.50325   0.33478   0.85805   0.00000  Uiso   1.00
Co60   Co    0.74863   0.49879   0.48568   0.00000  Uiso   1.00
Co61   Co    0.74742   0.50119   0.36004   0.00000  Uiso   1.00
Co62   Co    0.74948   0.49973   0.60985   0.00000  Uiso   1.00
Co63   Co    0.50101   0.66512   0.73221   0.00000  Uiso   1.00
Co64   Co    0.50072   0.66484   0.85633   0.00000  Uiso   1.00
Co65   Co    0.50006   0.66375   0.98146   0.00000  Uiso   1.00
Co66   Co    0.74758   0.83715   0.10822   0.00000  Uiso   1.00
Co67   Co    0.74812   0.83411   0.23237   0.00000  Uiso   1.00
Co68   Co    0.74797   0.83563   0.35790   0.00000  Uiso   1.00
Co69   Co    0.74884   0.83275   0.48405   0.00000  Uiso   1.00
Co70   Co    0.75071   0.16505   0.10991   0.00000  Uiso   1.00
Co71   Co    0.75080   0.16542   0.36054   0.00000  Uiso   1.00
Co72   Co    0.75104   0.16467   0.23462   0.00000  Uiso   1.00
Co73   Co    0.75244   0.16186   0.48418   0.00000  Uiso   1.00
Co74   Co    0.75265   0.16173   0.73540   0.00000  Uiso   1.00
Co75   Co    0.75131   0.16312   0.98444   0.00000  Uiso   1.00
Co76   Co    0.75405   0.16379   0.60857   0.00000  Uiso   1.00
Co77   Co    0.75251   0.16274   0.85994   0.00000  Uiso   1.00
Co78   Co    0.99818   0.33232   0.10688   0.00000  Uiso   1.00
Co79   Co    0.99700   0.33101   0.23318   0.00000  Uiso   1.00
Co80   Co    0.99878   0.32673   0.48100   0.00000  Uiso   1.00
Co81   Co    0.99758   0.32818   0.35797   0.00000  Uiso   1.00
Co82   Co    0.99962   0.33137   0.73233   0.00000  Uiso   1.00
Co83   Co    0.99892   0.33418   0.98231   0.00000  Uiso   1.00
Co84   Co    0.99903   0.33100   0.85597   0.00000  Uiso   1.00
Co85   Co    0.99964   0.32855   0.60748   0.00000  Uiso   1.00
Co86   Co    0.75025   0.50237   0.23454   0.00000  Uiso   1.00
Co87   Co    0.75096   0.50402   0.10812   0.00000  Uiso   1.00
Co88   Co    0.75294   0.50202   0.98501   0.00000  Uiso   1.00
Co89   Co    0.75096   0.50221   0.73560   0.00000  Uiso   1.00
Co90   Co    0.75212   0.50216   0.86064   0.00000  Uiso   1.00
Co91   Co    0.99977   0.66648   0.35729   0.00000  Uiso   1.00
Co92   Co    0.99935   0.66543   0.23125   0.00000  Uiso   1.00
Co93   Co    0.75126   0.83523   0.85908   0.00000  Uiso   1.00
Co94   Co    0.75165   0.83370   0.73561   0.00000  Uiso   1.00
Co95   Co    0.75010   0.83438   0.61050   0.00000  Uiso   1.00
Co96   Co    0.75005   0.83601   0.98178   0.00000  Uiso   1.00
Cl97   Cl    0.11332   0.14122   0.32673   0.00000  Uiso   1.00
Cl98   Cl    0.11093   0.14813   0.08269   0.00000  Uiso   1.00
Cl99   Cl    0.10891   0.15069   0.82590   0.00000  Uiso   1.00
Cl100  Cl    0.10961   0.15252   0.57274   0.00000  Uiso   1.00
Cl101  Cl    0.14069   0.30929   0.20540   0.00000  Uiso   1.00
Cl102  Cl    0.13871   0.31846   0.44603   0.00000  Uiso   1.00
Cl103  Cl    0.13855   0.31005   0.70897   0.00000  Uiso   1.00
Cl104  Cl    0.14126   0.31927   0.94607   0.00000  Uiso   1.00
Cl105  Cl    0.10855   0.48140   0.06863   0.00000  Uiso   1.00
Cl106  Cl    0.10342   0.47794   0.33623   0.00000  Uiso   1.00
Cl107  Cl    0.10903   0.48868   0.57416   0.00000  Uiso   1.00
Cl108  Cl    0.10926   0.49014   0.82438   0.00000  Uiso   1.00
Cl109  Cl    0.13917   0.64756   0.20409   0.00000  Uiso   1.00
Cl110  Cl    0.13887   0.65327   0.45270   0.00000  Uiso   1.00
Cl111  Cl    0.14876   0.64514   0.70759   0.00000  Uiso   1.00
Cl112  Cl    0.13384   0.65357   0.95294   0.00000  Uiso   1.00
Cl113  Cl    0.10922   0.81678   0.33754   0.00000  Uiso   1.00
Cl114  Cl    0.11345   0.81835   0.07192   0.00000  Uiso   1.00
Cl115  Cl    0.14525   0.98714   0.19614   0.00000  Uiso   1.00
Cl116  Cl    0.14695   0.99260   0.44909   0.00000  Uiso   1.00
Cl117  Cl    0.14108   0.98933   0.69749   0.00000  Uiso   1.00
Cl118  Cl    0.10540   0.82612   0.57373   0.00000  Uiso   1.00
Cl119  Cl    0.10359   0.81987   0.82935   0.00000  Uiso   1.00
Cl120  Cl    0.14637   0.98735   0.96137   0.00000  Uiso   1.00
Cl121  Cl    0.38981   0.18564   0.20102   0.00000  Uiso   1.00
Cl122  Cl    0.36173   0.00603   0.32429   0.00000  Uiso   1.00
Cl123  Cl    0.39274   0.19212   0.45127   0.00000  Uiso   1.00
Cl124  Cl    0.34755   0.01762   0.08486   0.00000  Uiso   1.00
Cl125  Cl    0.38921   0.18590   0.70424   0.00000  Uiso   1.00
Cl126  Cl    0.39556   0.18849   0.95192   0.00000  Uiso   1.00
Cl127  Cl    0.34894   0.01862   0.58680   0.00000  Uiso   1.00
Cl128  Cl    0.36020   0.00687   0.82208   0.00000  Uiso   1.00
Cl129  Cl    0.36064   0.34201   0.07854   0.00000  Uiso   1.00
Cl130  Cl    0.36482   0.34775   0.32831   0.00000  Uiso   1.00
Cl131  Cl    0.36418   0.34676   0.58030   0.00000  Uiso   1.00
Cl132  Cl    0.36495   0.34619   0.82462   0.00000  Uiso   1.00
Cl133  Cl    0.38429   0.50311   0.19932   0.00000  Uiso   1.00
Cl134  Cl    0.38938   0.51294   0.45602   0.00000  Uiso   1.00
Cl135  Cl    0.38870   0.50757   0.69927   0.00000  Uiso   1.00
Cl136  Cl    0.38445   0.50442   0.95165   0.00000  Uiso   1.00
Cl137  Cl    0.35351   0.68531   0.08449   0.00000  Uiso   1.00
Cl138  Cl    0.35742   0.68228   0.33896   0.00000  Uiso   1.00
Cl139  Cl    0.36108   0.67717   0.57253   0.00000  Uiso   1.00
Cl140  Cl    0.36720   0.67213   0.81648   0.00000  Uiso   1.00
Cl141  Cl    0.39830   0.85443   0.46810   0.00000  Uiso   1.00
Cl142  Cl    0.39142   0.84209   0.19214   0.00000  Uiso   1.00
Cl143  Cl    0.39538   0.84805   0.96044   0.00000  Uiso   1.00
Cl144  Cl    0.39037   0.84182   0.69943   0.00000  Uiso   1.00
Cl145  Cl    0.61191   0.15317   0.32475   0.00000  Uiso   1.00
Cl146  Cl    0.61129   0.15248   0.07485   0.00000  Uiso   1.00
Cl147  Cl    0.60840   0.14952   0.83311   0.00000  Uiso   1.00
Cl148  Cl    0.61174   0.14697   0.58121   0.00000  Uiso   1.00
Cl149  Cl    0.64125   0.32403   0.19378   0.00000  Uiso   1.00
Cl150  Cl    0.64360   0.31614   0.46116   0.00000  Uiso   1.00
Cl151  Cl    0.64707   0.31714   0.70746   0.00000  Uiso   1.00
Cl152  Cl    0.64057   0.32643   0.94944   0.00000  Uiso   1.00
Cl153  Cl    0.61692   0.48483   0.08011   0.00000  Uiso   1.00
Cl154  Cl    0.61266   0.49085   0.32800   0.00000  Uiso   1.00
Cl155  Cl    0.61099   0.48285   0.57685   0.00000  Uiso   1.00
Cl156  Cl    0.61505   0.48012   0.83565   0.00000  Uiso   1.00
Cl157  Cl    0.63948   0.65563   0.20184   0.00000  Uiso   1.00
Cl158  Cl    0.64393   0.64747   0.45822   0.00000  Uiso   1.00
Cl159  Cl    0.63793   0.65908   0.69926   0.00000  Uiso   1.00
Cl160  Cl    0.64507   0.64331   0.96013   0.00000  Uiso   1.00
Cl161  Cl    0.60627   0.82085   0.32746   0.00000  Uiso   1.00
Cl162  Cl    0.63683   0.99030   0.44298   0.00000  Uiso   1.00
Cl163  Cl    0.61139   0.82658   0.07288   0.00000  Uiso   1.00
Cl164  Cl    0.63749   0.98952   0.20206   0.00000  Uiso   1.00
Cl165  Cl    0.60652   0.82188   0.58104   0.00000  Uiso   1.00
Cl166  Cl    0.63948   0.98399   0.96146   0.00000  Uiso   1.00
Cl167  Cl    0.61587   0.82441   0.82458   0.00000  Uiso   1.00
Cl168  Cl    0.64076   0.99195   0.69483   0.00000  Uiso   1.00
Cl169  Cl    0.88590   0.17610   0.43948   0.00000  Uiso   1.00
Cl170  Cl    0.86572   0.01202   0.32317   0.00000  Uiso   1.00
Cl171  Cl    0.86510   0.01426   0.07483   0.00000  Uiso   1.00
Cl172  Cl    0.89938   0.18148   0.20842   0.00000  Uiso   1.00
Cl173  Cl    0.89045   0.18501   0.70300   0.00000  Uiso   1.00
Cl174  Cl    0.89331   0.18761   0.95899   0.00000  Uiso   1.00
Cl175  Cl    0.86363   0.01490   0.82018   0.00000  Uiso   1.00
Cl176  Cl    0.85902   0.01907   0.58130   0.00000  Uiso   1.00
Cl177  Cl    0.84810   0.35450   0.08440   0.00000  Uiso   1.00
Cl178  Cl    0.85493   0.34834   0.33009   0.00000  Uiso   1.00
Cl179  Cl    0.85835   0.34837   0.58336   0.00000  Uiso   1.00
Cl180  Cl    0.85814   0.34071   0.82022   0.00000  Uiso   1.00
Cl181  Cl    0.89426   0.51330   0.20450   0.00000  Uiso   1.00
Cl182  Cl    0.88874   0.50966   0.45124   0.00000  Uiso   1.00
Cl183  Cl    0.88854   0.51020   0.69914   0.00000  Uiso   1.00
Cl184  Cl    0.89342   0.51517   0.95002   0.00000  Uiso   1.00
Cl185  Cl    0.86412   0.68047   0.07213   0.00000  Uiso   1.00
Cl186  Cl    0.85993   0.68106   0.33048   0.00000  Uiso   1.00
Cl187  Cl    0.86182   0.67642   0.56743   0.00000  Uiso   1.00
Cl188  Cl    0.85651   0.68150   0.83197   0.00000  Uiso   1.00
Cl189  Cl    0.89162   0.84591   0.44928   0.00000  Uiso   1.00
Cl190  Cl    0.88690   0.84935   0.20222   0.00000  Uiso   1.00
Cl191  Cl    0.88903   0.84939   0.96266   0.00000  Uiso   1.00
Cl192  Cl    0.88940   0.84341   0.69897   0.00000  Uiso   1.00
H193   H     0.11323   0.05784   0.13101   0.00000  Uiso   1.00
H194   H     0.17380   0.09381   0.13577   0.00000  Uiso   1.00
H195   H     0.02685   0.04351   0.17255   0.00000  Uiso   1.00
H196   H     0.20700   0.05041   0.21535   0.00000  Uiso   1.00
H197   H     0.11845   0.04637   0.37672   0.00000  Uiso   1.00
H198   H     0.17882   0.08156   0.38084   0.00000  Uiso   1.00
H199   H     0.03614   0.03771   0.42134   0.00000  Uiso   1.00
H200   H     0.21352   0.04372   0.47237   0.00000  Uiso   1.00
H201   H     0.04427   0.19574   0.33956   0.00000  Uiso   1.00
H202   H     0.11731   0.05101   0.63042   0.00000  Uiso   1.00
H203   H     0.18283   0.08424   0.63496   0.00000  Uiso   1.00
H204   H     0.02768   0.04728   0.66967   0.00000  Uiso   1.00
H205   H     0.21269   0.04721   0.71318   0.00000  Uiso   1.00
H206   H     0.12534   0.04535   0.88441   0.00000  Uiso   1.00
H207   H     0.20050   0.05639   0.88971   0.00000  Uiso   1.00
H208   H     0.02795   0.05033   0.91967   0.00000  Uiso   1.00
H209   H     0.21879   0.04024   0.98620   0.00000  Uiso   1.00
H210   H     0.20264   0.37318   0.46631   0.00000  Uiso   1.00
H211   H     0.12957   0.20961   0.25955   0.00000  Uiso   1.00
H212   H     0.20367   0.36745   0.21819   0.00000  Uiso   1.00
H213   H     0.10685   0.37868   0.37672   0.00000  Uiso   1.00
H214   H     0.06683   0.24447   0.25801   0.00000  Uiso   1.00
H215   H     0.11912   0.36622   0.13606   0.00000  Uiso   1.00
H216   H     0.06476   0.23996   0.00797   0.00000  Uiso   1.00
H217   H     0.22279   0.21219   0.04541   0.00000  Uiso   1.00
H218   H     0.02751   0.36660   0.41947   0.00000  Uiso   1.00
H219   H     0.02685   0.37184   0.17430   0.00000  Uiso   1.00
H220   H     0.04251   0.20609   0.09211   0.00000  Uiso   1.00
H221   H     0.22174   0.21065   0.29415   0.00000  Uiso   1.00
H222   H     0.12912   0.21069   0.00906   0.00000  Uiso   1.00
H223   H     0.07026   0.24069   0.50093   0.00000  Uiso   1.00
H224   H     0.22385   0.21233   0.54437   0.00000  Uiso   1.00
H225   H     0.20825   0.37072   0.96757   0.00000  Uiso   1.00
H226   H     0.07162   0.24037   0.76208   0.00000  Uiso   1.00
H227   H     0.02846   0.36961   0.66975   0.00000  Uiso   1.00
H228   H     0.11102   0.37146   0.63126   0.00000  Uiso   1.00
H229   H     0.02296   0.37347   0.92019   0.00000  Uiso   1.00
H230   H     0.21933   0.20723   0.79450   0.00000  Uiso   1.00
H231   H     0.20747   0.36669   0.72389   0.00000  Uiso   1.00
H232   H     0.03635   0.20462   0.84311   0.00000  Uiso   1.00
H233   H     0.13498   0.21157   0.50498   0.00000  Uiso   1.00
H234   H     0.10994   0.37812   0.88002   0.00000  Uiso   1.00
H235   H     0.13909   0.21328   0.75219   0.00000  Uiso   1.00
H236   H     0.04079   0.20605   0.59447   0.00000  Uiso   1.00
H237   H     0.03993   0.54297   0.08505   0.00000  Uiso   1.00
H238   H     0.12217   0.53121   0.25787   0.00000  Uiso   1.00
H239   H     0.21391   0.53888   0.04546   0.00000  Uiso   1.00
H240   H     0.04047   0.54069   0.34489   0.00000  Uiso   1.00
H241   H     0.17425   0.41013   0.38250   0.00000  Uiso   1.00
H242   H     0.21743   0.53796   0.29611   0.00000  Uiso   1.00
H243   H     0.05944   0.56410   0.26134   0.00000  Uiso   1.00
H244   H     0.06988   0.58491   0.00619   0.00000  Uiso   1.00
H245   H     0.13524   0.54902   0.00587   0.00000  Uiso   1.00
H246   H     0.18952   0.40274   0.13704   0.00000  Uiso   1.00
H247   H     0.04131   0.54530   0.58968   0.00000  Uiso   1.00
H248   H     0.13658   0.55281   0.74997   0.00000  Uiso   1.00
H249   H     0.22355   0.53905   0.54216   0.00000  Uiso   1.00
H250   H     0.04372   0.54304   0.84086   0.00000  Uiso   1.00
H251   H     0.17329   0.41669   0.88032   0.00000  Uiso   1.00
H252   H     0.22339   0.54116   0.79433   0.00000  Uiso   1.00
H253   H     0.06526   0.57578   0.51094   0.00000  Uiso   1.00
H254   H     0.06238   0.57437   0.76256   0.00000  Uiso   1.00
H255   H     0.17147   0.41180   0.63379   0.00000  Uiso   1.00
H256   H     0.13518   0.54656   0.50569   0.00000  Uiso   1.00
H257   H     0.11422   0.71423   0.12891   0.00000  Uiso   1.00
H258   H     0.17821   0.74633   0.13366   0.00000  Uiso   1.00
H259   H     0.02961   0.70385   0.17129   0.00000  Uiso   1.00
H260   H     0.20787   0.70203   0.22227   0.00000  Uiso   1.00
H261   H     0.11204   0.71690   0.37991   0.00000  Uiso   1.00
H262   H     0.17943   0.73887   0.39243   0.00000  Uiso   1.00
H263   H     0.02461   0.71074   0.41800   0.00000  Uiso   1.00
H264   H     0.20616   0.70774   0.47185   0.00000  Uiso   1.00
H265   H     0.11511   0.71027   0.63206   0.00000  Uiso   1.00
H266   H     0.18435   0.73645   0.63928   0.00000  Uiso   1.00
H267   H     0.03108   0.71098   0.67014   0.00000  Uiso   1.00
H268   H     0.21207   0.70546   0.72416   0.00000  Uiso   1.00
H269   H     0.11152   0.71937   0.87520   0.00000  Uiso   1.00
H270   H     0.18138   0.74444   0.88490   0.00000  Uiso   1.00
H271   H     0.02513   0.71022   0.92075   0.00000  Uiso   1.00
H272   H     0.20912   0.70331   0.96682   0.00000  Uiso   1.00
H273   H     0.07912   0.92355   0.00568   0.00000  Uiso   1.00
H274   H     0.04357   0.87306   0.08693   0.00000  Uiso   1.00
H275   H     0.12880   0.86849   0.26004   0.00000  Uiso   1.00
H276   H     0.06954   0.90591   0.25666   0.00000  Uiso   1.00
H277   H     0.22302   0.87228   0.04702   0.00000  Uiso   1.00
H278   H     0.03934   0.87152   0.35350   0.00000  Uiso   1.00
H279   H     0.22668   0.87136   0.29791   0.00000  Uiso   1.00
H280   H     0.13990   0.88436   0.00832   0.00000  Uiso   1.00
H281   H     0.08290   0.92801   0.49876   0.00000  Uiso   1.00
H282   H     0.04577   0.88395   0.59320   0.00000  Uiso   1.00
H283   H     0.13660   0.87572   0.75717   0.00000  Uiso   1.00
H284   H     0.07413   0.91518   0.76025   0.00000  Uiso   1.00
H285   H     0.22000   0.86637   0.54605   0.00000  Uiso   1.00
H286   H     0.04405   0.88148   0.84874   0.00000  Uiso   1.00
H287   H     0.22073   0.87205   0.79461   0.00000  Uiso   1.00
H288   H     0.14222   0.88771   0.50572   0.00000  Uiso   1.00
H289   H     0.45044   0.12451   0.21137   0.00000  Uiso   1.00
H290   H     0.36331   0.13028   0.13002   0.00000  Uiso   1.00
H291   H     0.42752   0.09467   0.13575   0.00000  Uiso   1.00
H292   H     0.28089   0.13620   0.17115   0.00000  Uiso   1.00
H293   H     0.45468   0.13227   0.46201   0.00000  Uiso   1.00
H294   H     0.36806   0.13267   0.38365   0.00000  Uiso   1.00
H295   H     0.43030   0.09564   0.38574   0.00000  Uiso   1.00
H296   H     0.27980   0.13255   0.42143   0.00000  Uiso   1.00
H297   H     0.46059   0.13350   0.72494   0.00000  Uiso   1.00
H298   H     0.36212   0.12995   0.63086   0.00000  Uiso   1.00
H299   H     0.42649   0.09381   0.63085   0.00000  Uiso   1.00
H300   H     0.28648   0.13376   0.67241   0.00000  Uiso   1.00
H301   H     0.45748   0.13172   0.97215   0.00000  Uiso   1.00
H302   H     0.35705   0.12073   0.87710   0.00000  Uiso   1.00
H303   H     0.42497   0.08248   0.87789   0.00000  Uiso   1.00
H304   H     0.27217   0.13277   0.92045   0.00000  Uiso   1.00
H305   H     0.38930   0.28241   0.25653   0.00000  Uiso   1.00
H306   H     0.31955   0.25637   0.26591   0.00000  Uiso   1.00
H307   H     0.47898   0.28987   0.04609   0.00000  Uiso   1.00
H308   H     0.28721   0.30369   0.11083   0.00000  Uiso   1.00
H309   H     0.47693   0.29581   0.29862   0.00000  Uiso   1.00
H310   H     0.29486   0.29421   0.33881   0.00000  Uiso   1.00
H311   H     0.38728   0.28896   0.00385   0.00000  Uiso   1.00
H312   H     0.32719   0.25370   0.00386   0.00000  Uiso   1.00
H313   H     0.39016   0.27998   0.75619   0.00000  Uiso   1.00
H314   H     0.31775   0.25202   0.75977   0.00000  Uiso   1.00
H315   H     0.47446   0.29279   0.54560   0.00000  Uiso   1.00
H316   H     0.29155   0.29483   0.60004   0.00000  Uiso   1.00
H317   H     0.47701   0.29300   0.79771   0.00000  Uiso   1.00
H318   H     0.28865   0.30198   0.85073   0.00000  Uiso   1.00
H319   H     0.31498   0.26196   0.51410   0.00000  Uiso   1.00
H320   H     0.38498   0.28819   0.50875   0.00000  Uiso   1.00
H321   H     0.45594   0.45587   0.22400   0.00000  Uiso   1.00
H322   H     0.35344   0.44224   0.12768   0.00000  Uiso   1.00
H323   H     0.31807   0.59422   0.26317   0.00000  Uiso   1.00
H324   H     0.27391   0.46135   0.16948   0.00000  Uiso   1.00
H325   H     0.45698   0.45951   0.46789   0.00000  Uiso   1.00
H326   H     0.42989   0.42450   0.38997   0.00000  Uiso   1.00
H327   H     0.35925   0.45303   0.38164   0.00000  Uiso   1.00
H328   H     0.26976   0.45416   0.42023   0.00000  Uiso   1.00
H329   H     0.31519   0.59502   0.01056   0.00000  Uiso   1.00
H330   H     0.42395   0.41589   0.13879   0.00000  Uiso   1.00
H331   H     0.44973   0.45385   0.71788   0.00000  Uiso   1.00
H332   H     0.36409   0.45063   0.63127   0.00000  Uiso   1.00
H333   H     0.27292   0.45599   0.66640   0.00000  Uiso   1.00
H334   H     0.45406   0.45839   0.97495   0.00000  Uiso   1.00
H335   H     0.35625   0.44314   0.87866   0.00000  Uiso   1.00
H336   H     0.27557   0.45948   0.91966   0.00000  Uiso   1.00
H337   H     0.42985   0.42151   0.63509   0.00000  Uiso   1.00
H338   H     0.32767   0.57537   0.75368   0.00000  Uiso   1.00
H339   H     0.42373   0.41425   0.88224   0.00000  Uiso   1.00
H340   H     0.31791   0.58019   0.51143   0.00000  Uiso   1.00
H341   H     0.27336   0.78701   0.17323   0.00000  Uiso   1.00
H342   H     0.47372   0.62136   0.04378   0.00000  Uiso   1.00
H343   H     0.28676   0.62947   0.10371   0.00000  Uiso   1.00
H344   H     0.42514   0.74462   0.13204   0.00000  Uiso   1.00
H345   H     0.46917   0.62250   0.29104   0.00000  Uiso   1.00
H346   H     0.37249   0.79396   0.38610   0.00000  Uiso   1.00
H347   H     0.38532   0.62386   0.26125   0.00000  Uiso   1.00
H348   H     0.43979   0.76565   0.38452   0.00000  Uiso   1.00
H349   H     0.28768   0.62706   0.35087   0.00000  Uiso   1.00
H350   H     0.35531   0.77083   0.12382   0.00000  Uiso   1.00
H351   H     0.45439   0.77974   0.20775   0.00000  Uiso   1.00
H352   H     0.46033   0.79125   0.47444   0.00000  Uiso   1.00
H353   H     0.27534   0.78989   0.42086   0.00000  Uiso   1.00
H354   H     0.38240   0.62916   0.00992   0.00000  Uiso   1.00
H355   H     0.47303   0.62348   0.54572   0.00000  Uiso   1.00
H356   H     0.36292   0.78585   0.88005   0.00000  Uiso   1.00
H357   H     0.42515   0.74487   0.63702   0.00000  Uiso   1.00
H358   H     0.45622   0.78526   0.71767   0.00000  Uiso   1.00
H359   H     0.47199   0.62433   0.79283   0.00000  Uiso   1.00
H360   H     0.36061   0.77601   0.63127   0.00000  Uiso   1.00
H361   H     0.43261   0.75270   0.88311   0.00000  Uiso   1.00
H362   H     0.29676   0.61900   0.84004   0.00000  Uiso   1.00
H363   H     0.28812   0.62776   0.59419   0.00000  Uiso   1.00
H364   H     0.38468   0.61024   0.51062   0.00000  Uiso   1.00
H365   H     0.46133   0.79627   0.98007   0.00000  Uiso   1.00
H366   H     0.39016   0.60948   0.74918   0.00000  Uiso   1.00
H367   H     0.27953   0.79553   0.92041   0.00000  Uiso   1.00
H368   H     0.27931   0.79175   0.67386   0.00000  Uiso   1.00
H369   H     0.39374   0.94141   0.24516   0.00000  Uiso   1.00
H370   H     0.32615   0.91433   0.25987   0.00000  Uiso   1.00
H371   H     0.46954   0.96376   0.04030   0.00000  Uiso   1.00
H372   H     0.28301   0.95812   0.10729   0.00000  Uiso   1.00
H373   H     0.47041   0.96111   0.29469   0.00000  Uiso   1.00
H374   H     0.29063   0.95723   0.34375   0.00000  Uiso   1.00
H375   H     0.32292   0.91612   0.00953   0.00000  Uiso   1.00
H376   H     0.39528   0.94243   0.74611   0.00000  Uiso   1.00
H377   H     0.32754   0.90788   0.75210   0.00000  Uiso   1.00
H378   H     0.47493   0.96127   0.54558   0.00000  Uiso   1.00
H379   H     0.28418   0.96068   0.60625   0.00000  Uiso   1.00
H380   H     0.47162   0.96377   0.79421   0.00000  Uiso   1.00
H381   H     0.28738   0.96335   0.84932   0.00000  Uiso   1.00
H382   H     0.38290   0.95774   0.50972   0.00000  Uiso   1.00
H383   H     0.32409   0.91549   0.50996   0.00000  Uiso   1.00
H384   H     0.39406   0.94601   0.99727   0.00000  Uiso   1.00
H385   H     0.60613   0.05541   0.12940   0.00000  Uiso   1.00
H386   H     0.67376   0.08692   0.13879   0.00000  Uiso   1.00
H387   H     0.70938   0.03911   0.22475   0.00000  Uiso   1.00
H388   H     0.60644   0.05599   0.37794   0.00000  Uiso   1.00
H389   H     0.67408   0.08907   0.37994   0.00000  Uiso   1.00
H390   H     0.52701   0.04055   0.41820   0.00000  Uiso   1.00
H391   H     0.70986   0.03722   0.46622   0.00000  Uiso   1.00
H392   H     0.52241   0.04283   0.16729   0.00000  Uiso   1.00
H393   H     0.52562   0.04612   0.66553   0.00000  Uiso   1.00
H394   H     0.60933   0.05440   0.62196   0.00000  Uiso   1.00
H395   H     0.68004   0.07770   0.63008   0.00000  Uiso   1.00
H396   H     0.71358   0.03547   0.71867   0.00000  Uiso   1.00
H397   H     0.61642   0.03863   0.87858   0.00000  Uiso   1.00
H398   H     0.68696   0.06357   0.88551   0.00000  Uiso   1.00
H399   H     0.52737   0.04318   0.91712   0.00000  Uiso   1.00
H400   H     0.71033   0.03612   0.98241   0.00000  Uiso   1.00
H401   H     0.54518   0.20414   0.34360   0.00000  Uiso   1.00
H402   H     0.57105   0.24481   0.00958   0.00000  Uiso   1.00
H403   H     0.56988   0.24428   0.26071   0.00000  Uiso   1.00
H404   H     0.70688   0.37269   0.47235   0.00000  Uiso   1.00
H405   H     0.52378   0.37429   0.16743   0.00000  Uiso   1.00
H406   H     0.61925   0.37002   0.38237   0.00000  Uiso   1.00
H407   H     0.52547   0.37497   0.42084   0.00000  Uiso   1.00
H408   H     0.63640   0.21298   0.25212   0.00000  Uiso   1.00
H409   H     0.72833   0.20774   0.04670   0.00000  Uiso   1.00
H410   H     0.70296   0.38289   0.20924   0.00000  Uiso   1.00
H411   H     0.61247   0.38838   0.12959   0.00000  Uiso   1.00
H412   H     0.54075   0.20724   0.09384   0.00000  Uiso   1.00
H413   H     0.72213   0.20401   0.29644   0.00000  Uiso   1.00
H414   H     0.63748   0.21956   0.00508   0.00000  Uiso   1.00
H415   H     0.73267   0.20583   0.79841   0.00000  Uiso   1.00
H416   H     0.71567   0.37395   0.72379   0.00000  Uiso   1.00
H417   H     0.58272   0.25558   0.75225   0.00000  Uiso   1.00
H418   H     0.60942   0.38844   0.62853   0.00000  Uiso   1.00
H419   H     0.52482   0.37559   0.67128   0.00000  Uiso   1.00
H420   H     0.52438   0.37964   0.92263   0.00000  Uiso   1.00
H421   H     0.61350   0.38400   0.88250   0.00000  Uiso   1.00
H422   H     0.64245   0.21041   0.76041   0.00000  Uiso   1.00
H423   H     0.57315   0.24824   0.50589   0.00000  Uiso   1.00
H424   H     0.70950   0.37460   0.96922   0.00000  Uiso   1.00
H425   H     0.63821   0.21094   0.50586   0.00000  Uiso   1.00
H426   H     0.54599   0.20443   0.59538   0.00000  Uiso   1.00
H427   H     0.54094   0.20507   0.84496   0.00000  Uiso   1.00
H428   H     0.72233   0.20256   0.54724   0.00000  Uiso   1.00
H429   H     0.54296   0.53819   0.09383   0.00000  Uiso   1.00
H430   H     0.57283   0.58428   0.00703   0.00000  Uiso   1.00
H431   H     0.63181   0.54857   0.25784   0.00000  Uiso   1.00
H432   H     0.71895   0.54026   0.04547   0.00000  Uiso   1.00
H433   H     0.53950   0.53213   0.34846   0.00000  Uiso   1.00
H434   H     0.56522   0.57044   0.26188   0.00000  Uiso   1.00
H435   H     0.72307   0.54093   0.29787   0.00000  Uiso   1.00
H436   H     0.67407   0.42218   0.13325   0.00000  Uiso   1.00
H437   H     0.68365   0.40866   0.38178   0.00000  Uiso   1.00
H438   H     0.64171   0.55099   0.00497   0.00000  Uiso   1.00
H439   H     0.54087   0.53868   0.59566   0.00000  Uiso   1.00
H440   H     0.68263   0.41348   0.88903   0.00000  Uiso   1.00
H441   H     0.63429   0.54511   0.75572   0.00000  Uiso   1.00
H442   H     0.71843   0.53635   0.54782   0.00000  Uiso   1.00
H443   H     0.54221   0.53121   0.84778   0.00000  Uiso   1.00
H444   H     0.63228   0.54929   0.50964   0.00000  Uiso   1.00
H445   H     0.72848   0.54419   0.79886   0.00000  Uiso   1.00
H446   H     0.56909   0.57727   0.76455   0.00000  Uiso   1.00
H447   H     0.56793   0.57817   0.50770   0.00000  Uiso   1.00
H448   H     0.67322   0.42100   0.62995   0.00000  Uiso   1.00
H449   H     0.60636   0.71885   0.12674   0.00000  Uiso   1.00
H450   H     0.66922   0.75713   0.12694   0.00000  Uiso   1.00
H451   H     0.53599   0.69641   0.17153   0.00000  Uiso   1.00
H452   H     0.70483   0.71312   0.21983   0.00000  Uiso   1.00
H453   H     0.61600   0.70809   0.38649   0.00000  Uiso   1.00
H454   H     0.68535   0.73360   0.39456   0.00000  Uiso   1.00
H455   H     0.52667   0.70407   0.41856   0.00000  Uiso   1.00
H456   H     0.71178   0.70321   0.47413   0.00000  Uiso   1.00
H457   H     0.60915   0.71724   0.62619   0.00000  Uiso   1.00
H458   H     0.67207   0.75120   0.63350   0.00000  Uiso   1.00
H459   H     0.52709   0.70794   0.67228   0.00000  Uiso   1.00
H460   H     0.71076   0.70603   0.72183   0.00000  Uiso   1.00
H461   H     0.61817   0.70171   0.89020   0.00000  Uiso   1.00
H462   H     0.68549   0.73534   0.89248   0.00000  Uiso   1.00
H463   H     0.52999   0.70359   0.92517   0.00000  Uiso   1.00
H464   H     0.71079   0.70129   0.97946   0.00000  Uiso   1.00
H465   H     0.54497   0.88177   0.09288   0.00000  Uiso   1.00
H466   H     0.63922   0.89075   0.25164   0.00000  Uiso   1.00
H467   H     0.57096   0.92142   0.25835   0.00000  Uiso   1.00
H468   H     0.71719   0.87249   0.04670   0.00000  Uiso   1.00
H469   H     0.54500   0.88192   0.33868   0.00000  Uiso   1.00
H470   H     0.72305   0.87667   0.29488   0.00000  Uiso   1.00
H471   H     0.57305   0.91861   0.00717   0.00000  Uiso   1.00
H472   H     0.64051   0.89009   0.00410   0.00000  Uiso   1.00
H473   H     0.53839   0.87483   0.60281   0.00000  Uiso   1.00
H474   H     0.64021   0.89204   0.75454   0.00000  Uiso   1.00
H475   H     0.57125   0.92376   0.76093   0.00000  Uiso   1.00
H476   H     0.72712   0.87647   0.54806   0.00000  Uiso   1.00
H477   H     0.54466   0.88256   0.84383   0.00000  Uiso   1.00
H478   H     0.72836   0.87944   0.79468   0.00000  Uiso   1.00
H479   H     0.63359   0.88170   0.50676   0.00000  Uiso   1.00
H480   H     0.56827   0.91471   0.50792   0.00000  Uiso   1.00
H481   H     0.96827   0.12833   0.22991   0.00000  Uiso   1.00
H482   H     0.86462   0.12478   0.13018   0.00000  Uiso   1.00
H483   H     0.93118   0.08909   0.13717   0.00000  Uiso   1.00
H484   H     0.77735   0.12430   0.17105   0.00000  Uiso   1.00
H485   H     0.95770   0.11952   0.45818   0.00000  Uiso   1.00
H486   H     0.85498   0.10320   0.37106   0.00000  Uiso   1.00
H487   H     0.92391   0.07818   0.37924   0.00000  Uiso   1.00
H488   H     0.78156   0.12694   0.41542   0.00000  Uiso   1.00
H489   H     0.95759   0.12560   0.71222   0.00000  Uiso   1.00
H490   H     0.87709   0.12700   0.62900   0.00000  Uiso   1.00
H491   H     0.94185   0.09944   0.62968   0.00000  Uiso   1.00
H492   H     0.77766   0.12019   0.67163   0.00000  Uiso   1.00
H493   H     0.96049   0.13283   0.97438   0.00000  Uiso   1.00
H494   H     0.87080   0.12683   0.88496   0.00000  Uiso   1.00
H495   H     0.93845   0.09437   0.88168   0.00000  Uiso   1.00
H496   H     0.78352   0.12198   0.92384   0.00000  Uiso   1.00
H497   H     0.88708   0.27882   0.25189   0.00000  Uiso   1.00
H498   H     0.82180   0.24787   0.25873   0.00000  Uiso   1.00
H499   H     0.78060   0.29657   0.10387   0.00000  Uiso   1.00
H500   H     0.97213   0.28905   0.29336   0.00000  Uiso   1.00
H501   H     0.78521   0.29849   0.35181   0.00000  Uiso   1.00
H502   H     0.97324   0.29505   0.04566   0.00000  Uiso   1.00
H503   H     0.88165   0.30301   0.01159   0.00000  Uiso   1.00
H504   H     0.82206   0.25649   0.01081   0.00000  Uiso   1.00
H505   H     0.88577   0.27927   0.75645   0.00000  Uiso   1.00
H506   H     0.81932   0.24966   0.75833   0.00000  Uiso   1.00
H507   H     0.97087   0.28476   0.54755   0.00000  Uiso   1.00
H508   H     0.79009   0.29075   0.59333   0.00000  Uiso   1.00
H509   H     0.97550   0.29253   0.79552   0.00000  Uiso   1.00
H510   H     0.79671   0.28713   0.84322   0.00000  Uiso   1.00
H511   H     0.81798   0.25171   0.51053   0.00000  Uiso   1.00
H512   H     0.88473   0.28428   0.50738   0.00000  Uiso   1.00
H513   H     0.95746   0.45875   0.22109   0.00000  Uiso   1.00
H514   H     0.86606   0.45456   0.13032   0.00000  Uiso   1.00
H515   H     0.92500   0.41226   0.38148   0.00000  Uiso   1.00
H516   H     0.78058   0.46619   0.17104   0.00000  Uiso   1.00
H517   H     0.86029   0.44826   0.37977   0.00000  Uiso   1.00
H518   H     0.77534   0.45953   0.42291   0.00000  Uiso   1.00
H519   H     0.95279   0.44892   0.46811   0.00000  Uiso   1.00
H520   H     0.93626   0.42941   0.13574   0.00000  Uiso   1.00
H521   H     0.82664   0.57648   0.00476   0.00000  Uiso   1.00
H522   H     0.81468   0.59808   0.25991   0.00000  Uiso   1.00
H523   H     0.95588   0.45290   0.71442   0.00000  Uiso   1.00
H524   H     0.85496   0.43853   0.62507   0.00000  Uiso   1.00
H525   H     0.77169   0.45870   0.67596   0.00000  Uiso   1.00
H526   H     0.95673   0.45797   0.96706   0.00000  Uiso   1.00
H527   H     0.86392   0.44340   0.87810   0.00000  Uiso   1.00
H528   H     0.78235   0.46339   0.92196   0.00000  Uiso   1.00
H529   H     0.81563   0.59717   0.76108   0.00000  Uiso   1.00
H530   H     0.91873   0.40386   0.62815   0.00000  Uiso   1.00
H531   H     0.93221   0.41588   0.87962   0.00000  Uiso   1.00
H532   H     0.82414   0.58438   0.51140   0.00000  Uiso   1.00
H533   H     0.85682   0.78122   0.13475   0.00000  Uiso   1.00
H534   H     0.92343   0.74749   0.13316   0.00000  Uiso   1.00
H535   H     0.97181   0.62653   0.29666   0.00000  Uiso   1.00
H536   H     0.89559   0.60904   0.00145   0.00000  Uiso   1.00
H537   H     0.97138   0.62823   0.04551   0.00000  Uiso   1.00
H538   H     0.92285   0.74626   0.37390   0.00000  Uiso   1.00
H539   H     0.78887   0.63303   0.09094   0.00000  Uiso   1.00
H540   H     0.88295   0.62654   0.25287   0.00000  Uiso   1.00
H541   H     0.79220   0.62367   0.35029   0.00000  Uiso   1.00
H542   H     0.77510   0.79341   0.16678   0.00000  Uiso   1.00
H543   H     0.95633   0.79589   0.21726   0.00000  Uiso   1.00
H544   H     0.95710   0.78917   0.46732   0.00000  Uiso   1.00
H545   H     0.85698   0.78292   0.37708   0.00000  Uiso   1.00
H546   H     0.77590   0.79536   0.42242   0.00000  Uiso   1.00
H547   H     0.97117   0.63180   0.54438   0.00000  Uiso   1.00
H548   H     0.86938   0.79111   0.88351   0.00000  Uiso   1.00
H549   H     0.93381   0.75780   0.63826   0.00000  Uiso   1.00
H550   H     0.96918   0.63243   0.79339   0.00000  Uiso   1.00
H551   H     0.78915   0.62889   0.85168   0.00000  Uiso   1.00
H552   H     0.77438   0.79021   0.67206   0.00000  Uiso   1.00
H553   H     0.93633   0.76261   0.88676   0.00000  Uiso   1.00
H554   H     0.79514   0.62302   0.58826   0.00000  Uiso   1.00
H555   H     0.86090   0.78074   0.62738   0.00000  Uiso   1.00
H556   H     0.88620   0.62315   0.75195   0.00000  Uiso   1.00
H557   H     0.95483   0.79571   0.97656   0.00000  Uiso   1.00
H558   H     0.95817   0.79095   0.71651   0.00000  Uiso   1.00
H559   H     0.77434   0.79431   0.91842   0.00000  Uiso   1.00
H560   H     0.89796   0.60656   0.50023   0.00000  Uiso   1.00
H561   H     0.82641   0.92508   0.01037   0.00000  Uiso   1.00
H562   H     0.88918   0.95218   0.25462   0.00000  Uiso   1.00
H563   H     0.81959   0.92804   0.26011   0.00000  Uiso   1.00
H564   H     0.79848   0.95732   0.09000   0.00000  Uiso   1.00
H565   H     0.97502   0.96166   0.29421   0.00000  Uiso   1.00
H566   H     0.79343   0.95965   0.34723   0.00000  Uiso   1.00
H567   H     0.97877   0.96339   0.03913   0.00000  Uiso   1.00
H568   H     0.89136   0.95442   0.00348   0.00000  Uiso   1.00
H569   H     0.89415   0.93973   0.74566   0.00000  Uiso   1.00
H570   H     0.82779   0.91361   0.75267   0.00000  Uiso   1.00
H571   H     0.97356   0.96274   0.54452   0.00000  Uiso   1.00
H572   H     0.79065   0.95972   0.59928   0.00000  Uiso   1.00
H573   H     0.98295   0.96277   0.79732   0.00000  Uiso   1.00
H574   H     0.79192   0.96093   0.84465   0.00000  Uiso   1.00
H575   H     0.82997   0.91477   0.50317   0.00000  Uiso   1.00
H576   H     0.89447   0.95131   0.50558   0.00000  Uiso   1.00
C577   C     0.17438   0.17703   0.42133   0.00000  Uiso   1.00
C578   C     0.12887   0.18649   0.42479   0.00000  Uiso   1.00
C579   C     0.13548   0.05316   0.09865   0.00000  Uiso   1.00
C580   C     0.17210   0.07479   0.09695   0.00000  Uiso   1.00
C581   C     0.17336   0.18351   0.17202   0.00000  Uiso   1.00
C582   C     0.10149   0.17780   0.37812   0.00000  Uiso   1.00
C583   C     0.12441   0.02979   0.05182   0.00000  Uiso   1.00
C584   C     0.23109   0.10534   0.04879   0.00000  Uiso   1.00
C585   C     0.20174   0.07180   0.05512   0.00000  Uiso   1.00
C586   C     0.13930   0.04205   0.34224   0.00000  Uiso   1.00
C587   C     0.17394   0.06386   0.34322   0.00000  Uiso   1.00
C588   C     0.15440   0.01997   0.25094   0.00000  Uiso   1.00
C589   C     0.19190   0.04548   0.25242   0.00000  Uiso   1.00
C590   C     0.12626   0.02231   0.29484   0.00000  Uiso   1.00
C591   C     0.22576   0.10280   0.29653   0.00000  Uiso   1.00
C592   C     0.20091   0.06728   0.29825   0.00000  Uiso   1.00
C593   C     0.08176   0.01007   0.29213   0.00000  Uiso   1.00
C594   C     0.10021   0.18720   0.12903   0.00000  Uiso   1.00
C595   C     0.08080   0.01750   0.04798   0.00000  Uiso   1.00
C596   C     0.19502   0.04276   0.01596   0.00000  Uiso   1.00
C597   C     0.12751   0.18959   0.17510   0.00000  Uiso   1.00
C598   C     0.15764   0.02196   0.01171   0.00000  Uiso   1.00
C599   C     0.06276   0.19927   0.37562   0.00000  Uiso   1.00
C600   C     0.12809   0.18968   0.67324   0.00000  Uiso   1.00
C601   C     0.13853   0.04692   0.59733   0.00000  Uiso   1.00
C602   C     0.17877   0.06472   0.60053   0.00000  Uiso   1.00
C603   C     0.19382   0.04258   0.50711   0.00000  Uiso   1.00
C604   C     0.07916   0.01320   0.54626   0.00000  Uiso   1.00
C605   C     0.12526   0.02507   0.54775   0.00000  Uiso   1.00
C606   C     0.23296   0.09842   0.54813   0.00000  Uiso   1.00
C607   C     0.20312   0.06587   0.55202   0.00000  Uiso   1.00
C608   C     0.14279   0.04321   0.84467   0.00000  Uiso   1.00
C609   C     0.18504   0.05216   0.84824   0.00000  Uiso   1.00
C610   C     0.15172   0.02652   0.74824   0.00000  Uiso   1.00
C611   C     0.19206   0.04535   0.74932   0.00000  Uiso   1.00
C612   C     0.12419   0.03037   0.79556   0.00000  Uiso   1.00
C613   C     0.22754   0.10109   0.79920   0.00000  Uiso   1.00
C614   C     0.20632   0.06270   0.80004   0.00000  Uiso   1.00
C615   C     0.08117   0.01896   0.79280   0.00000  Uiso   1.00
C616   C     0.17266   0.17512   0.67099   0.00000  Uiso   1.00
C617   C     0.17163   0.18325   0.92270   0.00000  Uiso   1.00
C618   C     0.10128   0.18670   0.62601   0.00000  Uiso   1.00
C619   C     0.09765   0.18675   0.87692   0.00000  Uiso   1.00
C620   C     0.12426   0.19012   0.92403   0.00000  Uiso   1.00
C621   C     0.15443   0.02238   0.50485   0.00000  Uiso   1.00
C622   C     0.12949   0.37357   0.34262   0.00000  Uiso   1.00
C623   C     0.11153   0.20799   0.22241   0.00000  Uiso   1.00
C624   C     0.14779   0.34560   0.25778   0.00000  Uiso   1.00
C625   C     0.17694   0.38673   0.10067   0.00000  Uiso   1.00
C626   C     0.11883   0.35048   0.29866   0.00000  Uiso   1.00
C627   C     0.13799   0.36656   0.10136   0.00000  Uiso   1.00
C628   C     0.18259   0.37115   0.25434   0.00000  Uiso   1.00
C629   C     0.02121   0.26395   0.17015   0.00000  Uiso   1.00
C630   C     0.05037   0.23121   0.17291   0.00000  Uiso   1.00
C631   C     0.07428   0.22814   0.22054   0.00000  Uiso   1.00
C632   C     0.07585   0.34527   0.04772   0.00000  Uiso   1.00
C633   C     0.12177   0.35271   0.05192   0.00000  Uiso   1.00
C634   C     0.16804   0.39287   0.34581   0.00000  Uiso   1.00
C635   C     0.01965   0.25712   0.41682   0.00000  Uiso   1.00
C636   C     0.05016   0.22259   0.42002   0.00000  Uiso   1.00
C637   C     0.07449   0.33940   0.29658   0.00000  Uiso   1.00
C638   C     0.07577   0.22366   0.46756   0.00000  Uiso   1.00
C639   C     0.19718   0.39437   0.04990   0.00000  Uiso   1.00
C640   C     0.18598   0.37234   0.00337   0.00000  Uiso   1.00
C641   C     0.11486   0.20649   0.46841   0.00000  Uiso   1.00
C642   C     0.06171   0.20852   0.12621   0.00000  Uiso   1.00
C643   C     0.19081   0.39699   0.29636   0.00000  Uiso   1.00
C644   C     0.14893   0.34958   0.00496   0.00000  Uiso   1.00
C645   C     0.12962   0.37246   0.59256   0.00000  Uiso   1.00
C646   C     0.18560   0.36958   0.75822   0.00000  Uiso   1.00
C647   C     0.11669   0.21074   0.71881   0.00000  Uiso   1.00
C648   C     0.07481   0.34122   0.79443   0.00000  Uiso   1.00
C649   C     0.11707   0.35640   0.79928   0.00000  Uiso   1.00
C650   C     0.14654   0.34948   0.75809   0.00000  Uiso   1.00
C651   C     0.02148   0.26170   0.67420   0.00000  Uiso   1.00
C652   C     0.05061   0.22890   0.67847   0.00000  Uiso   1.00
C653   C     0.18408   0.37221   0.50343   0.00000  Uiso   1.00
C654   C     0.07697   0.22674   0.72243   0.00000  Uiso   1.00
C655   C     0.07504   0.33815   0.54280   0.00000  Uiso   1.00
C656   C     0.11841   0.35440   0.54416   0.00000  Uiso   1.00
C657   C     0.12987   0.37781   0.84389   0.00000  Uiso   1.00
C658   C     0.02068   0.26293   0.91980   0.00000  Uiso   1.00
C659   C     0.04609   0.22518   0.92382   0.00000  Uiso   1.00
C660   C     0.19395   0.39849   0.79851   0.00000  Uiso   1.00
C661   C     0.07117   0.22212   0.97316   0.00000  Uiso   1.00
C662   C     0.06147   0.20703   0.62931   0.00000  Uiso   1.00
C663   C     0.05743   0.20362   0.87822   0.00000  Uiso   1.00
C664   C     0.10793   0.20416   0.97384   0.00000  Uiso   1.00
C665   C     0.14732   0.35009   0.50172   0.00000  Uiso   1.00
C666   C     0.19406   0.39438   0.55233   0.00000  Uiso   1.00
C667   C     0.16616   0.39341   0.59750   0.00000  Uiso   1.00
C668   C     0.16786   0.39869   0.84381   0.00000  Uiso   1.00
C669   C     0.02147   0.59696   0.16683   0.00000  Uiso   1.00
C670   C     0.07641   0.56252   0.47313   0.00000  Uiso   1.00
C671   C     0.09466   0.51488   0.12332   0.00000  Uiso   1.00
C672   C     0.11487   0.54226   0.47119   0.00000  Uiso   1.00
C673   C     0.06021   0.54054   0.12157   0.00000  Uiso   1.00
C674   C     0.16783   0.50749   0.17082   0.00000  Uiso   1.00
C675   C     0.12144   0.51613   0.17258   0.00000  Uiso   1.00
C676   C     0.04822   0.56070   0.16939   0.00000  Uiso   1.00
C677   C     0.22140   0.42912   0.29407   0.00000  Uiso   1.00
C678   C     0.10455   0.52988   0.22253   0.00000  Uiso   1.00
C679   C     0.06837   0.55156   0.22067   0.00000  Uiso   1.00
C680   C     0.22344   0.43007   0.04702   0.00000  Uiso   1.00
C681   C     0.09660   0.51596   0.38325   0.00000  Uiso   1.00
C682   C     0.06084   0.54075   0.38241   0.00000  Uiso   1.00
C683   C     0.16980   0.50736   0.42145   0.00000  Uiso   1.00
C684   C     0.12591   0.51965   0.42586   0.00000  Uiso   1.00
C685   C     0.05332   0.56734   0.42442   0.00000  Uiso   1.00
C686   C     0.02336   0.59975   0.41981   0.00000  Uiso   1.00
C687   C     0.11488   0.54632   0.96937   0.00000  Uiso   1.00
C688   C     0.07758   0.56669   0.97173   0.00000  Uiso   1.00
C689   C     0.09859   0.52228   0.62758   0.00000  Uiso   1.00
C690   C     0.06082   0.54510   0.62742   0.00000  Uiso   1.00
C691   C     0.17242   0.51350   0.66760   0.00000  Uiso   1.00
C692   C     0.12770   0.52735   0.67172   0.00000  Uiso   1.00
C693   C     0.04937   0.56679   0.67575   0.00000  Uiso   1.00
C694   C     0.11379   0.54573   0.71919   0.00000  Uiso   1.00
C695   C     0.07367   0.56206   0.72433   0.00000  Uiso   1.00
C696   C     0.22126   0.42958   0.54791   0.00000  Uiso   1.00
C697   C     0.10032   0.52330   0.87713   0.00000  Uiso   1.00
C698   C     0.06343   0.54620   0.87709   0.00000  Uiso   1.00
C699   C     0.22389   0.43152   0.79473   0.00000  Uiso   1.00
C700   C     0.17134   0.51127   0.91916   0.00000  Uiso   1.00
C701   C     0.12808   0.52524   0.92325   0.00000  Uiso   1.00
C702   C     0.05328   0.56952   0.92332   0.00000  Uiso   1.00
C703   C     0.13420   0.71134   0.09487   0.00000  Uiso   1.00
C704   C     0.17363   0.72898   0.09562   0.00000  Uiso   1.00
C705   C     0.07492   0.68364   0.04561   0.00000  Uiso   1.00
C706   C     0.12011   0.69470   0.04682   0.00000  Uiso   1.00
C707   C     0.22715   0.76473   0.04506   0.00000  Uiso   1.00
C708   C     0.20044   0.72908   0.04854   0.00000  Uiso   1.00
C709   C     0.13233   0.71047   0.34565   0.00000  Uiso   1.00
C710   C     0.17410   0.72456   0.35160   0.00000  Uiso   1.00
C711   C     0.14966   0.68119   0.25869   0.00000  Uiso   1.00
C712   C     0.18626   0.70329   0.25842   0.00000  Uiso   1.00
C713   C     0.07647   0.67827   0.29757   0.00000  Uiso   1.00
C714   C     0.12021   0.68950   0.29953   0.00000  Uiso   1.00
C715   C     0.22570   0.76165   0.29860   0.00000  Uiso   1.00
C716   C     0.19809   0.72717   0.30295   0.00000  Uiso   1.00
C717   C     0.14946   0.68588   0.00467   0.00000  Uiso   1.00
C718   C     0.18943   0.70523   0.00326   0.00000  Uiso   1.00
C719   C     0.13556   0.70884   0.59545   0.00000  Uiso   1.00
C720   C     0.17522   0.72497   0.59764   0.00000  Uiso   1.00
C721   C     0.07763   0.67876   0.54609   0.00000  Uiso   1.00
C722   C     0.12066   0.69344   0.54726   0.00000  Uiso   1.00
C723   C     0.22714   0.76333   0.54942   0.00000  Uiso   1.00
C724   C     0.20034   0.72825   0.55080   0.00000  Uiso   1.00
C725   C     0.18684   0.70878   0.50440   0.00000  Uiso   1.00
C726   C     0.13614   0.70870   0.84574   0.00000  Uiso   1.00
C727   C     0.17471   0.72877   0.84727   0.00000  Uiso   1.00
C728   C     0.15271   0.68472   0.75535   0.00000  Uiso   1.00
C729   C     0.19058   0.70622   0.75814   0.00000  Uiso   1.00
C730   C     0.07854   0.67882   0.79242   0.00000  Uiso   1.00
C731   C     0.12318   0.68934   0.79690   0.00000  Uiso   1.00
C732   C     0.22747   0.76586   0.79889   0.00000  Uiso   1.00
C733   C     0.20179   0.73012   0.80262   0.00000  Uiso   1.00
C734   C     0.14876   0.68786   0.50331   0.00000  Uiso   1.00
C735   C     0.02259   0.60205   0.91916   0.00000  Uiso   1.00
C736   C     0.02360   0.60151   0.67130   0.00000  Uiso   1.00
C737   C     0.09937   0.84868   0.12737   0.00000  Uiso   1.00
C738   C     0.06369   0.87346   0.12431   0.00000  Uiso   1.00
C739   C     0.17169   0.84188   0.17062   0.00000  Uiso   1.00
C740   C     0.12458   0.84967   0.17436   0.00000  Uiso   1.00
C741   C     0.02547   0.93239   0.16778   0.00000  Uiso   1.00
C742   C     0.05316   0.89783   0.16969   0.00000  Uiso   1.00
C743   C     0.11070   0.86666   0.22010   0.00000  Uiso   1.00
C744   C     0.07600   0.89102   0.21787   0.00000  Uiso   1.00
C745   C     0.10142   0.85077   0.38657   0.00000  Uiso   1.00
C746   C     0.06480   0.87399   0.38492   0.00000  Uiso   1.00
C747   C     0.17617   0.84374   0.42445   0.00000  Uiso   1.00
C748   C     0.13135   0.85709   0.42857   0.00000  Uiso   1.00
C749   C     0.02829   0.93389   0.42078   0.00000  Uiso   1.00
C750   C     0.05844   0.90224   0.42522   0.00000  Uiso   1.00
C751   C     0.12200   0.88382   0.47249   0.00000  Uiso   1.00
C752   C     0.08540   0.90504   0.46941   0.00000  Uiso   1.00
C753   C     0.09685   0.85474   0.63285   0.00000  Uiso   1.00
C754   C     0.06145   0.87914   0.63191   0.00000  Uiso   1.00
C755   C     0.17228   0.84457   0.67206   0.00000  Uiso   1.00
C756   C     0.12633   0.85606   0.67553   0.00000  Uiso   1.00
C757   C     0.02791   0.93684   0.67132   0.00000  Uiso   1.00
C758   C     0.05170   0.90178   0.67747   0.00000  Uiso   1.00
C759   C     0.11450   0.87661   0.72319   0.00000  Uiso   1.00
C760   C     0.07872   0.89848   0.72548   0.00000  Uiso   1.00
C761   C     0.10036   0.85674   0.88055   0.00000  Uiso   1.00
C762   C     0.06564   0.88150   0.88057   0.00000  Uiso   1.00
C763   C     0.17184   0.84450   0.92241   0.00000  Uiso   1.00
C764   C     0.12880   0.85983   0.92614   0.00000  Uiso   1.00
C765   C     0.03003   0.94075   0.92056   0.00000  Uiso   1.00
C766   C     0.05931   0.90952   0.92428   0.00000  Uiso   1.00
C767   C     0.12073   0.88414   0.96968   0.00000  Uiso   1.00
C768   C     0.08500   0.90747   0.96872   0.00000  Uiso   1.00
C769   C     0.32767   0.16344   0.04631   0.00000  Uiso   1.00
C770   C     0.37377   0.15093   0.04736   0.00000  Uiso   1.00
C771   C     0.47509   0.06972   0.04489   0.00000  Uiso   1.00
C772   C     0.44650   0.10539   0.05106   0.00000  Uiso   1.00
C773   C     0.38554   0.13268   0.09730   0.00000  Uiso   1.00
C774   C     0.42257   0.11162   0.09877   0.00000  Uiso   1.00
C775   C     0.39679   0.14968   0.25354   0.00000  Uiso   1.00
C776   C     0.43269   0.12592   0.24983   0.00000  Uiso   1.00
C777   C     0.32582   0.15923   0.29718   0.00000  Uiso   1.00
C778   C     0.36962   0.14840   0.29919   0.00000  Uiso   1.00
C779   C     0.47170   0.07041   0.29460   0.00000  Uiso   1.00
C780   C     0.44469   0.10429   0.29796   0.00000  Uiso   1.00
C781   C     0.38550   0.13019   0.34789   0.00000  Uiso   1.00
C782   C     0.42357   0.11148   0.34831   0.00000  Uiso   1.00
C783   C     0.40120   0.15283   0.00288   0.00000  Uiso   1.00
C784   C     0.43720   0.12965   0.00577   0.00000  Uiso   1.00
C785   C     0.43728   0.13257   0.50024   0.00000  Uiso   1.00
C786   C     0.32722   0.16418   0.54673   0.00000  Uiso   1.00
C787   C     0.37219   0.15138   0.54706   0.00000  Uiso   1.00
C788   C     0.47021   0.07057   0.54277   0.00000  Uiso   1.00
C789   C     0.44299   0.10703   0.54634   0.00000  Uiso   1.00
C790   C     0.38254   0.13149   0.59491   0.00000  Uiso   1.00
C791   C     0.41946   0.11008   0.59468   0.00000  Uiso   1.00
C792   C     0.39825   0.15103   0.75523   0.00000  Uiso   1.00
C793   C     0.43688   0.13027   0.75845   0.00000  Uiso   1.00
C794   C     0.32398   0.16099   0.79682   0.00000  Uiso   1.00
C795   C     0.36902   0.14605   0.79996   0.00000  Uiso   1.00
C796   C     0.47784   0.07399   0.79567   0.00000  Uiso   1.00
C797   C     0.44575   0.10583   0.80175   0.00000  Uiso   1.00
C798   C     0.37947   0.12385   0.84534   0.00000  Uiso   1.00
C799   C     0.41745   0.10398   0.84596   0.00000  Uiso   1.00
C800   C     0.40190   0.15701   0.50253   0.00000  Uiso   1.00
C801   C     0.36787   0.28729   0.22245   0.00000  Uiso   1.00
C802   C     0.32832   0.27357   0.22980   0.00000  Uiso   1.00
C803   C     0.35295   0.31183   0.13405   0.00000  Uiso   1.00
C804   C     0.31351   0.29436   0.13705   0.00000  Uiso   1.00
C805   C     0.42648   0.31592   0.17212   0.00000  Uiso   1.00
C806   C     0.38191   0.30419   0.17382   0.00000  Uiso   1.00
C807   C     0.27006   0.24197   0.17620   0.00000  Uiso   1.00
C808   C     0.30116   0.27467   0.18300   0.00000  Uiso   1.00
C809   C     0.36416   0.28905   0.47142   0.00000  Uiso   1.00
C810   C     0.32420   0.27235   0.47419   0.00000  Uiso   1.00
C811   C     0.35190   0.31365   0.38207   0.00000  Uiso   1.00
C812   C     0.31315   0.29400   0.37781   0.00000  Uiso   1.00
C813   C     0.42437   0.31905   0.42159   0.00000  Uiso   1.00
C814   C     0.37843   0.30828   0.42564   0.00000  Uiso   1.00
C815   C     0.26893   0.24096   0.42305   0.00000  Uiso   1.00
C816   C     0.29984   0.27182   0.42618   0.00000  Uiso   1.00
C817   C     0.47175   0.39892   0.05033   0.00000  Uiso   1.00
C818   C     0.36812   0.28441   0.72208   0.00000  Uiso   1.00
C819   C     0.32843   0.26805   0.72440   0.00000  Uiso   1.00
C820   C     0.35313   0.31215   0.63153   0.00000  Uiso   1.00
C821   C     0.31169   0.29292   0.63481   0.00000  Uiso   1.00
C822   C     0.42759   0.31212   0.67179   0.00000  Uiso   1.00
C823   C     0.38188   0.30562   0.67572   0.00000  Uiso   1.00
C824   C     0.26891   0.23948   0.67213   0.00000  Uiso   1.00
C825   C     0.30164   0.26931   0.67853   0.00000  Uiso   1.00
C826   C     0.36847   0.29109   0.96731   0.00000  Uiso   1.00
C827   C     0.33027   0.27315   0.96952   0.00000  Uiso   1.00
C828   C     0.35209   0.31602   0.87940   0.00000  Uiso   1.00
C829   C     0.31261   0.29643   0.88066   0.00000  Uiso   1.00
C830   C     0.42712   0.32114   0.91884   0.00000  Uiso   1.00
C831   C     0.38220   0.30898   0.92080   0.00000  Uiso   1.00
C832   C     0.27205   0.24108   0.91911   0.00000  Uiso   1.00
C833   C     0.30525   0.27022   0.92196   0.00000  Uiso   1.00
C834   C     0.36899   0.47449   0.30187   0.00000  Uiso   1.00
C835   C     0.44482   0.43506   0.30504   0.00000  Uiso   1.00
C836   C     0.42174   0.43903   0.35302   0.00000  Uiso   1.00
C837   C     0.32220   0.48398   0.29720   0.00000  Uiso   1.00
C838   C     0.32232   0.48667   0.04770   0.00000  Uiso   1.00
C839   C     0.36522   0.47216   0.05033   0.00000  Uiso   1.00
C840   C     0.44037   0.42981   0.05506   0.00000  Uiso   1.00
C841   C     0.37654   0.44918   0.09667   0.00000  Uiso   1.00
C842   C     0.26959   0.56465   0.42196   0.00000  Uiso   1.00
C843   C     0.41507   0.43089   0.10089   0.00000  Uiso   1.00
C844   C     0.27137   0.56865   0.17585   0.00000  Uiso   1.00
C845   C     0.38195   0.45705   0.35083   0.00000  Uiso   1.00
C846   C     0.39704   0.47693   0.25691   0.00000  Uiso   1.00
C847   C     0.43405   0.45497   0.25805   0.00000  Uiso   1.00
C848   C     0.43139   0.45299   0.00736   0.00000  Uiso   1.00
C849   C     0.30038   0.59720   0.42730   0.00000  Uiso   1.00
C850   C     0.39475   0.47377   0.00541   0.00000  Uiso   1.00
C851   C     0.32604   0.59819   0.47502   0.00000  Uiso   1.00
C852   C     0.47626   0.40126   0.30023   0.00000  Uiso   1.00
C853   C     0.41799   0.43088   0.84634   0.00000  Uiso   1.00
C854   C     0.44308   0.42928   0.79876   0.00000  Uiso   1.00
C855   C     0.37719   0.44916   0.84341   0.00000  Uiso   1.00
C856   C     0.36670   0.47289   0.79912   0.00000  Uiso   1.00
C857   C     0.39720   0.47550   0.50476   0.00000  Uiso   1.00
C858   C     0.32329   0.48207   0.54465   0.00000  Uiso   1.00
C859   C     0.36845   0.47228   0.54859   0.00000  Uiso   1.00
C860   C     0.44999   0.43643   0.54883   0.00000  Uiso   1.00
C861   C     0.38287   0.45550   0.59663   0.00000  Uiso   1.00
C862   C     0.32279   0.48450   0.79527   0.00000  Uiso   1.00
C863   C     0.42469   0.43898   0.59879   0.00000  Uiso   1.00
C864   C     0.27116   0.56710   0.66968   0.00000  Uiso   1.00
C865   C     0.27401   0.56529   0.92138   0.00000  Uiso   1.00
C866   C     0.39605   0.47724   0.75615   0.00000  Uiso   1.00
C867   C     0.43268   0.45485   0.75677   0.00000  Uiso   1.00
C868   C     0.47743   0.40098   0.54818   0.00000  Uiso   1.00
C869   C     0.43659   0.45700   0.50397   0.00000  Uiso   1.00
C870   C     0.33098   0.59613   0.71722   0.00000  Uiso   1.00
C871   C     0.30453   0.59681   0.67289   0.00000  Uiso   1.00
C872   C     0.47522   0.40076   0.79520   0.00000  Uiso   1.00
C873   C     0.34646   0.65189   0.13872   0.00000  Uiso   1.00
C874   C     0.36486   0.61435   0.47266   0.00000  Uiso   1.00
C875   C     0.42086   0.65522   0.17068   0.00000  Uiso   1.00
C876   C     0.37655   0.64536   0.17887   0.00000  Uiso   1.00
C877   C     0.30795   0.62875   0.13751   0.00000  Uiso   1.00
C878   C     0.34703   0.64545   0.38626   0.00000  Uiso   1.00
C879   C     0.30871   0.62414   0.38540   0.00000  Uiso   1.00
C880   C     0.48134   0.73212   0.04626   0.00000  Uiso   1.00
C881   C     0.44786   0.76537   0.05277   0.00000  Uiso   1.00
C882   C     0.41794   0.76019   0.09602   0.00000  Uiso   1.00
C883   C     0.42162   0.65070   0.42387   0.00000  Uiso   1.00
C884   C     0.37717   0.63636   0.42748   0.00000  Uiso   1.00
C885   C     0.36383   0.62601   0.22632   0.00000  Uiso   1.00
C886   C     0.47317   0.73049   0.29497   0.00000  Uiso   1.00
C887   C     0.44833   0.76553   0.29715   0.00000  Uiso   1.00
C888   C     0.42798   0.77583   0.34690   0.00000  Uiso   1.00
C889   C     0.44012   0.79193   0.01162   0.00000  Uiso   1.00
C890   C     0.43699   0.78563   0.24798   0.00000  Uiso   1.00
C891   C     0.39135   0.79707   0.34706   0.00000  Uiso   1.00
C892   C     0.38042   0.77932   0.09372   0.00000  Uiso   1.00
C893   C     0.29951   0.60409   0.17887   0.00000  Uiso   1.00
C894   C     0.32518   0.60712   0.22525   0.00000  Uiso   1.00
C895   C     0.34704   0.64755   0.62960   0.00000  Uiso   1.00
C896   C     0.31603   0.62011   0.87537   0.00000  Uiso   1.00
C897   C     0.38367   0.78075   0.59769   0.00000  Uiso   1.00
C898   C     0.31239   0.62206   0.62694   0.00000  Uiso   1.00
C899   C     0.42380   0.65394   0.66981   0.00000  Uiso   1.00
C900   C     0.37747   0.64370   0.67297   0.00000  Uiso   1.00
C901   C     0.36419   0.62725   0.97232   0.00000  Uiso   1.00
C902   C     0.35393   0.64319   0.87643   0.00000  Uiso   1.00
C903   C     0.43800   0.78824   0.75505   0.00000  Uiso   1.00
C904   C     0.48076   0.73313   0.54939   0.00000  Uiso   1.00
C905   C     0.44793   0.76437   0.55437   0.00000  Uiso   1.00
C906   C     0.36689   0.61816   0.71803   0.00000  Uiso   1.00
C907   C     0.42081   0.76176   0.59814   0.00000  Uiso   1.00
C908   C     0.42483   0.65178   0.91902   0.00000  Uiso   1.00
C909   C     0.38110   0.64173   0.92202   0.00000  Uiso   1.00
C910   C     0.47743   0.73199   0.79609   0.00000  Uiso   1.00
C911   C     0.44751   0.76502   0.79981   0.00000  Uiso   1.00
C912   C     0.42194   0.76620   0.84645   0.00000  Uiso   1.00
C913   C     0.38414   0.78797   0.84505   0.00000  Uiso   1.00
C914   C     0.44042   0.78861   0.51002   0.00000  Uiso   1.00
C915   C     0.32534   0.60692   0.97272   0.00000  Uiso   1.00
C916   C     0.30074   0.60150   0.92513   0.00000  Uiso   1.00
C917   C     0.42055   0.98973   0.42210   0.00000  Uiso   1.00
C918   C     0.32620   0.81837   0.04883   0.00000  Uiso   1.00
C919   C     0.37073   0.94821   0.21597   0.00000  Uiso   1.00
C920   C     0.33322   0.92974   0.22098   0.00000  Uiso   1.00
C921   C     0.34586   0.97949   0.13051   0.00000  Uiso   1.00
C922   C     0.30966   0.95507   0.13503   0.00000  Uiso   1.00
C923   C     0.37320   0.80998   0.29661   0.00000  Uiso   1.00
C924   C     0.37676   0.97475   0.17229   0.00000  Uiso   1.00
C925   C     0.27145   0.89848   0.17319   0.00000  Uiso   1.00
C926   C     0.30497   0.92749   0.17751   0.00000  Uiso   1.00
C927   C     0.36333   0.95910   0.47427   0.00000  Uiso   1.00
C928   C     0.32743   0.93529   0.47394   0.00000  Uiso   1.00
C929   C     0.34812   0.97762   0.38042   0.00000  Uiso   1.00
C930   C     0.31106   0.95601   0.38112   0.00000  Uiso   1.00
C931   C     0.40185   0.81301   0.01038   0.00000  Uiso   1.00
C932   C     0.37510   0.97620   0.42601   0.00000  Uiso   1.00
C933   C     0.27417   0.89899   0.42212   0.00000  Uiso   1.00
C934   C     0.30090   0.93490   0.42749   0.00000  Uiso   1.00
C935   C     0.42090   0.98710   0.16958   0.00000  Uiso   1.00
C936   C     0.32765   0.81797   0.29372   0.00000  Uiso   1.00
C937   C     0.40086   0.81171   0.24999   0.00000  Uiso   1.00
C938   C     0.37091   0.80408   0.04934   0.00000  Uiso   1.00
C939   C     0.32539   0.82292   0.79707   0.00000  Uiso   1.00
C940   C     0.32850   0.81794   0.55047   0.00000  Uiso   1.00
C941   C     0.37126   0.94823   0.71415   0.00000  Uiso   1.00
C942   C     0.33302   0.92823   0.71796   0.00000  Uiso   1.00
C943   C     0.34782   0.97675   0.62995   0.00000  Uiso   1.00
C944   C     0.31110   0.95497   0.63121   0.00000  Uiso   1.00
C945   C     0.37989   0.97314   0.67073   0.00000  Uiso   1.00
C946   C     0.27313   0.89881   0.67230   0.00000  Uiso   1.00
C947   C     0.30423   0.93005   0.67517   0.00000  Uiso   1.00
C948   C     0.36987   0.95217   0.96790   0.00000  Uiso   1.00
C949   C     0.32940   0.93405   0.97352   0.00000  Uiso   1.00
C950   C     0.34913   0.97826   0.88177   0.00000  Uiso   1.00
C951   C     0.30975   0.95982   0.88510   0.00000  Uiso   1.00
C952   C     0.37864   0.97534   0.92241   0.00000  Uiso   1.00
C953   C     0.26879   0.90236   0.92369   0.00000  Uiso   1.00
C954   C     0.30111   0.93320   0.92866   0.00000  Uiso   1.00
C955   C     0.42281   0.98996   0.91956   0.00000  Uiso   1.00
C956   C     0.37193   0.81000   0.79997   0.00000  Uiso   1.00
C957   C     0.40059   0.81248   0.75661   0.00000  Uiso   1.00
C958   C     0.42220   0.99000   0.66732   0.00000  Uiso   1.00
C959   C     0.37289   0.80495   0.55411   0.00000  Uiso   1.00
C960   C     0.40323   0.81248   0.51171   0.00000  Uiso   1.00
C961   C     0.57246   0.01705   0.29247   0.00000  Uiso   1.00
C962   C     0.67414   0.17464   0.42226   0.00000  Uiso   1.00
C963   C     0.62810   0.05013   0.09650   0.00000  Uiso   1.00
C964   C     0.66688   0.06882   0.09996   0.00000  Uiso   1.00
C965   C     0.60147   0.18531   0.37992   0.00000  Uiso   1.00
C966   C     0.67337   0.17434   0.17138   0.00000  Uiso   1.00
C967   C     0.61828   0.02625   0.05287   0.00000  Uiso   1.00
C968   C     0.72872   0.09677   0.05108   0.00000  Uiso   1.00
C969   C     0.69586   0.06625   0.05619   0.00000  Uiso   1.00
C970   C     0.62894   0.05089   0.34578   0.00000  Uiso   1.00
C971   C     0.66880   0.06907   0.34896   0.00000  Uiso   1.00
C972   C     0.64814   0.02094   0.25730   0.00000  Uiso   1.00
C973   C     0.68763   0.04150   0.25844   0.00000  Uiso   1.00
C974   C     0.61740   0.03004   0.29682   0.00000  Uiso   1.00
C975   C     0.72856   0.09697   0.29769   0.00000  Uiso   1.00
C976   C     0.69744   0.06610   0.30386   0.00000  Uiso   1.00
C977   C     0.62921   0.18768   0.42527   0.00000  Uiso   1.00
C978   C     0.57435   0.01585   0.04752   0.00000  Uiso   1.00
C979   C     0.60026   0.18376   0.12754   0.00000  Uiso   1.00
C980   C     0.62830   0.18656   0.17333   0.00000  Uiso   1.00
C981   C     0.64987   0.01733   0.01532   0.00000  Uiso   1.00
C982   C     0.68807   0.03870   0.01719   0.00000  Uiso   1.00
C983   C     0.64721   0.02215   0.49731   0.00000  Uiso   1.00
C984   C     0.68724   0.04037   0.49798   0.00000  Uiso   1.00
C985   C     0.57423   0.01383   0.53926   0.00000  Uiso   1.00
C986   C     0.67445   0.17713   0.92428   0.00000  Uiso   1.00
C987   C     0.62945   0.19143   0.92467   0.00000  Uiso   1.00
C988   C     0.63160   0.04784   0.59045   0.00000  Uiso   1.00
C989   C     0.67312   0.05814   0.59695   0.00000  Uiso   1.00
C990   C     0.60229   0.18177   0.63565   0.00000  Uiso   1.00
C991   C     0.61885   0.02759   0.54156   0.00000  Uiso   1.00
C992   C     0.72644   0.09579   0.54470   0.00000  Uiso   1.00
C993   C     0.69788   0.06164   0.54713   0.00000  Uiso   1.00
C994   C     0.63628   0.03736   0.84337   0.00000  Uiso   1.00
C995   C     0.67845   0.05307   0.84746   0.00000  Uiso   1.00
C996   C     0.65174   0.01833   0.75191   0.00000  Uiso   1.00
C997   C     0.69313   0.03577   0.75385   0.00000  Uiso   1.00
C998   C     0.60025   0.18676   0.88223   0.00000  Uiso   1.00
C999   C     0.62172   0.02360   0.79415   0.00000  Uiso   1.00
C1000  C     0.72907   0.09440   0.79692   0.00000  Uiso   1.00
C1001  C     0.70113   0.05812   0.80042   0.00000  Uiso   1.00
C1002  C     0.63382   0.18721   0.67830   0.00000  Uiso   1.00
C1003  C     0.67865   0.17708   0.67392   0.00000  Uiso   1.00
C1004  C     0.57754   0.01452   0.79213   0.00000  Uiso   1.00
C1005  C     0.63244   0.38582   0.09332   0.00000  Uiso   1.00
C1006  C     0.68401   0.38094   0.24587   0.00000  Uiso   1.00
C1007  C     0.68840   0.37823   0.00671   0.00000  Uiso   1.00
C1008  C     0.64801   0.35766   0.24800   0.00000  Uiso   1.00
C1009  C     0.52744   0.26566   0.17491   0.00000  Uiso   1.00
C1010  C     0.55131   0.22887   0.17612   0.00000  Uiso   1.00
C1011  C     0.61463   0.20792   0.21877   0.00000  Uiso   1.00
C1012  C     0.57634   0.22648   0.22417   0.00000  Uiso   1.00
C1013  C     0.57678   0.34941   0.04576   0.00000  Uiso   1.00
C1014  C     0.62026   0.36269   0.04881   0.00000  Uiso   1.00
C1015  C     0.62208   0.35477   0.29731   0.00000  Uiso   1.00
C1016  C     0.57607   0.34555   0.29545   0.00000  Uiso   1.00
C1017  C     0.58167   0.23163   0.47057   0.00000  Uiso   1.00
C1018  C     0.63827   0.36900   0.34573   0.00000  Uiso   1.00
C1019  C     0.52597   0.26429   0.41938   0.00000  Uiso   1.00
C1020  C     0.55666   0.23295   0.42343   0.00000  Uiso   1.00
C1021  C     0.56125   0.20698   0.12884   0.00000  Uiso   1.00
C1022  C     0.69795   0.39752   0.29521   0.00000  Uiso   1.00
C1023  C     0.61696   0.20792   0.47210   0.00000  Uiso   1.00
C1024  C     0.56602   0.20821   0.37923   0.00000  Uiso   1.00
C1025  C     0.65038   0.35791   0.00577   0.00000  Uiso   1.00
C1026  C     0.67578   0.39109   0.34637   0.00000  Uiso   1.00
C1027  C     0.61796   0.21448   0.96913   0.00000  Uiso   1.00
C1028  C     0.69296   0.37438   0.75878   0.00000  Uiso   1.00
C1029  C     0.65249   0.35351   0.75609   0.00000  Uiso   1.00
C1030  C     0.63548   0.38165   0.84543   0.00000  Uiso   1.00
C1031  C     0.56600   0.20475   0.63270   0.00000  Uiso   1.00
C1032  C     0.62236   0.36097   0.79773   0.00000  Uiso   1.00
C1033  C     0.53005   0.26555   0.67210   0.00000  Uiso   1.00
C1034  C     0.55978   0.23128   0.67460   0.00000  Uiso   1.00
C1035  C     0.58794   0.23454   0.71984   0.00000  Uiso   1.00
C1036  C     0.57653   0.34547   0.54572   0.00000  Uiso   1.00
C1037  C     0.61929   0.36010   0.54860   0.00000  Uiso   1.00
C1038  C     0.63060   0.38324   0.59447   0.00000  Uiso   1.00
C1039  C     0.57806   0.34955   0.79712   0.00000  Uiso   1.00
C1040  C     0.52670   0.26734   0.92190   0.00000  Uiso   1.00
C1041  C     0.55416   0.23353   0.92460   0.00000  Uiso   1.00
C1042  C     0.57997   0.23382   0.97026   0.00000  Uiso   1.00
C1043  C     0.62165   0.20943   0.72452   0.00000  Uiso   1.00
C1044  C     0.56243   0.20815   0.87997   0.00000  Uiso   1.00
C1045  C     0.65036   0.35110   0.51016   0.00000  Uiso   1.00
C1046  C     0.68695   0.37308   0.50847   0.00000  Uiso   1.00
C1047  C     0.69690   0.39790   0.55161   0.00000  Uiso   1.00
C1048  C     0.70107   0.39826   0.80303   0.00000  Uiso   1.00
C1049  C     0.61179   0.54283   0.47551   0.00000  Uiso   1.00
C1050  C     0.72512   0.43261   0.29473   0.00000  Uiso   1.00
C1051  C     0.66948   0.40572   0.09514   0.00000  Uiso   1.00
C1052  C     0.60163   0.52046   0.13082   0.00000  Uiso   1.00
C1053  C     0.56197   0.53945   0.12907   0.00000  Uiso   1.00
C1054  C     0.67507   0.51638   0.17240   0.00000  Uiso   1.00
C1055  C     0.63018   0.52620   0.17579   0.00000  Uiso   1.00
C1056  C     0.54927   0.56110   0.17647   0.00000  Uiso   1.00
C1057  C     0.61299   0.54200   0.22211   0.00000  Uiso   1.00
C1058  C     0.57304   0.55702   0.22361   0.00000  Uiso   1.00
C1059  C     0.73086   0.43587   0.04598   0.00000  Uiso   1.00
C1060  C     0.52183   0.59680   0.42189   0.00000  Uiso   1.00
C1061  C     0.59903   0.51717   0.38301   0.00000  Uiso   1.00
C1062  C     0.57206   0.55977   0.47398   0.00000  Uiso   1.00
C1063  C     0.56145   0.53686   0.38154   0.00000  Uiso   1.00
C1064  C     0.67098   0.51150   0.42664   0.00000  Uiso   1.00
C1065  C     0.62658   0.52296   0.42852   0.00000  Uiso   1.00
C1066  C     0.55019   0.56207   0.42599   0.00000  Uiso   1.00
C1067  C     0.52011   0.59407   0.17079   0.00000  Uiso   1.00
C1068  C     0.69706   0.40518   0.05034   0.00000  Uiso   1.00
C1069  C     0.60074   0.51997   0.63029   0.00000  Uiso   1.00
C1070  C     0.56338   0.54193   0.62997   0.00000  Uiso   1.00
C1071  C     0.67378   0.51447   0.67111   0.00000  Uiso   1.00
C1072  C     0.62827   0.52387   0.67397   0.00000  Uiso   1.00
C1073  C     0.55228   0.56366   0.67551   0.00000  Uiso   1.00
C1074  C     0.58152   0.56619   0.97185   0.00000  Uiso   1.00
C1075  C     0.61308   0.54061   0.72235   0.00000  Uiso   1.00
C1076  C     0.57704   0.56169   0.72483   0.00000  Uiso   1.00
C1077  C     0.72958   0.42803   0.54766   0.00000  Uiso   1.00
C1078  C     0.62100   0.54855   0.97068   0.00000  Uiso   1.00
C1079  C     0.60267   0.51646   0.88485   0.00000  Uiso   1.00
C1080  C     0.56461   0.53747   0.88280   0.00000  Uiso   1.00
C1081  C     0.72931   0.43254   0.79847   0.00000  Uiso   1.00
C1082  C     0.67682   0.51382   0.92121   0.00000  Uiso   1.00
C1083  C     0.63240   0.52510   0.92602   0.00000  Uiso   1.00
C1084  C     0.55478   0.56351   0.92556   0.00000  Uiso   1.00
C1085  C     0.52377   0.59588   0.91869   0.00000  Uiso   1.00
C1086  C     0.52205   0.59617   0.67045   0.00000  Uiso   1.00
C1087  C     0.67079   0.40022   0.59666   0.00000  Uiso   1.00
C1088  C     0.67429   0.40018   0.84981   0.00000  Uiso   1.00
C1089  C     0.62966   0.71428   0.09430   0.00000  Uiso   1.00
C1090  C     0.66486   0.73841   0.09230   0.00000  Uiso   1.00
C1091  C     0.57653   0.67386   0.04743   0.00000  Uiso   1.00
C1092  C     0.61945   0.68886   0.05066   0.00000  Uiso   1.00
C1093  C     0.72401   0.76863   0.04408   0.00000  Uiso   1.00
C1094  C     0.69396   0.73581   0.04956   0.00000  Uiso   1.00
C1095  C     0.63567   0.70464   0.34988   0.00000  Uiso   1.00
C1096  C     0.67588   0.72086   0.35393   0.00000  Uiso   1.00
C1097  C     0.64879   0.68789   0.25674   0.00000  Uiso   1.00
C1098  C     0.68642   0.70962   0.25775   0.00000  Uiso   1.00
C1099  C     0.57492   0.67769   0.29691   0.00000  Uiso   1.00
C1100  C     0.61959   0.69031   0.30038   0.00000  Uiso   1.00
C1101  C     0.72193   0.76625   0.29869   0.00000  Uiso   1.00
C1102  C     0.69847   0.72919   0.30595   0.00000  Uiso   1.00
C1103  C     0.68640   0.70679   0.00911   0.00000  Uiso   1.00
C1104  C     0.64994   0.68369   0.00770   0.00000  Uiso   1.00
C1105  C     0.62938   0.71417   0.59104   0.00000  Uiso   1.00
C1106  C     0.66625   0.73602   0.59360   0.00000  Uiso   1.00
C1107  C     0.57519   0.67461   0.54365   0.00000  Uiso   1.00
C1108  C     0.61857   0.69121   0.54553   0.00000  Uiso   1.00
C1109  C     0.72578   0.76596   0.54547   0.00000  Uiso   1.00
C1110  C     0.69532   0.73535   0.55043   0.00000  Uiso   1.00
C1111  C     0.63705   0.70466   0.85089   0.00000  Uiso   1.00
C1112  C     0.67470   0.72481   0.85407   0.00000  Uiso   1.00
C1113  C     0.65079   0.68582   0.75603   0.00000  Uiso   1.00
C1114  C     0.69058   0.70554   0.75995   0.00000  Uiso   1.00
C1115  C     0.57611   0.68233   0.79489   0.00000  Uiso   1.00
C1116  C     0.62243   0.68879   0.79912   0.00000  Uiso   1.00
C1117  C     0.72406   0.76622   0.80183   0.00000  Uiso   1.00
C1118  C     0.69840   0.72954   0.80512   0.00000  Uiso   1.00
C1119  C     0.68769   0.70993   0.50578   0.00000  Uiso   1.00
C1120  C     0.64882   0.68803   0.50458   0.00000  Uiso   1.00
C1121  C     0.60042   0.86055   0.12780   0.00000  Uiso   1.00
C1122  C     0.56265   0.88094   0.12871   0.00000  Uiso   1.00
C1123  C     0.67167   0.85034   0.17132   0.00000  Uiso   1.00
C1124  C     0.62770   0.86528   0.17187   0.00000  Uiso   1.00
C1125  C     0.52118   0.93525   0.16739   0.00000  Uiso   1.00
C1126  C     0.55074   0.90235   0.17440   0.00000  Uiso   1.00
C1127  C     0.61570   0.88454   0.21977   0.00000  Uiso   1.00
C1128  C     0.57725   0.90164   0.22266   0.00000  Uiso   1.00
C1129  C     0.59712   0.85616   0.38156   0.00000  Uiso   1.00
C1130  C     0.56114   0.87951   0.37797   0.00000  Uiso   1.00
C1131  C     0.67192   0.84647   0.42175   0.00000  Uiso   1.00
C1132  C     0.62734   0.86097   0.42338   0.00000  Uiso   1.00
C1133  C     0.52283   0.93532   0.41970   0.00000  Uiso   1.00
C1134  C     0.55174   0.90340   0.42148   0.00000  Uiso   1.00
C1135  C     0.61325   0.87899   0.47161   0.00000  Uiso   1.00
C1136  C     0.57567   0.90016   0.47087   0.00000  Uiso   1.00
C1137  C     0.59662   0.85473   0.63714   0.00000  Uiso   1.00
C1138  C     0.56157   0.87919   0.63547   0.00000  Uiso   1.00
C1139  C     0.67253   0.84786   0.67132   0.00000  Uiso   1.00
C1140  C     0.62746   0.86111   0.67781   0.00000  Uiso   1.00
C1141  C     0.52465   0.93688   0.67032   0.00000  Uiso   1.00
C1142  C     0.55274   0.90400   0.67960   0.00000  Uiso   1.00
C1143  C     0.61683   0.88436   0.72332   0.00000  Uiso   1.00
C1144  C     0.57953   0.90406   0.72585   0.00000  Uiso   1.00
C1145  C     0.60663   0.86127   0.87615   0.00000  Uiso   1.00
C1146  C     0.56736   0.88262   0.87765   0.00000  Uiso   1.00
C1147  C     0.67710   0.85319   0.91918   0.00000  Uiso   1.00
C1148  C     0.63432   0.86644   0.92102   0.00000  Uiso   1.00
C1149  C     0.52414   0.93445   0.91940   0.00000  Uiso   1.00
C1150  C     0.55679   0.90554   0.92219   0.00000  Uiso   1.00
C1151  C     0.61981   0.88822   0.96735   0.00000  Uiso   1.00
C1152  C     0.58148   0.90483   0.96768   0.00000  Uiso   1.00
C1153  C     0.82709   0.15741   0.04999   0.00000  Uiso   1.00
C1154  C     0.87305   0.14614   0.05088   0.00000  Uiso   1.00
C1155  C     0.97935   0.07260   0.04875   0.00000  Uiso   1.00
C1156  C     0.95000   0.10722   0.05471   0.00000  Uiso   1.00
C1157  C     0.88526   0.12644   0.09852   0.00000  Uiso   1.00
C1158  C     0.92437   0.10825   0.10164   0.00000  Uiso   1.00
C1159  C     0.90277   0.14374   0.25700   0.00000  Uiso   1.00
C1160  C     0.94133   0.12303   0.25877   0.00000  Uiso   1.00
C1161  C     0.82783   0.15444   0.29606   0.00000  Uiso   1.00
C1162  C     0.86955   0.13615   0.29610   0.00000  Uiso   1.00
C1163  C     0.97692   0.06727   0.29517   0.00000  Uiso   1.00
C1164  C     0.94790   0.09777   0.30075   0.00000  Uiso   1.00
C1165  C     0.87747   0.11114   0.33969   0.00000  Uiso   1.00
C1166  C     0.91760   0.09566   0.34261   0.00000  Uiso   1.00
C1167  C     0.90205   0.15237   0.00942   0.00000  Uiso   1.00
C1168  C     0.94018   0.13192   0.01108   0.00000  Uiso   1.00
C1169  C     0.93975   0.12280   0.49537   0.00000  Uiso   1.00
C1170  C     0.90177   0.14529   0.49628   0.00000  Uiso   1.00
C1171  C     0.82899   0.15099   0.54141   0.00000  Uiso   1.00
C1172  C     0.87499   0.14446   0.54263   0.00000  Uiso   1.00
C1173  C     0.98415   0.07039   0.54288   0.00000  Uiso   1.00
C1174  C     0.95319   0.10417   0.54357   0.00000  Uiso   1.00
C1175  C     0.89212   0.12885   0.59057   0.00000  Uiso   1.00
C1176  C     0.93129   0.11100   0.59181   0.00000  Uiso   1.00
C1177  C     0.89866   0.14680   0.75117   0.00000  Uiso   1.00
C1178  C     0.93800   0.12701   0.75094   0.00000  Uiso   1.00
C1179  C     0.82785   0.15104   0.79501   0.00000  Uiso   1.00
C1180  C     0.87162   0.14170   0.79781   0.00000  Uiso   1.00
C1181  C     0.98152   0.07421   0.79385   0.00000  Uiso   1.00
C1182  C     0.95170   0.10598   0.79737   0.00000  Uiso   1.00
C1183  C     0.88938   0.12694   0.84556   0.00000  Uiso   1.00
C1184  C     0.92918   0.10906   0.84391   0.00000  Uiso   1.00
C1185  C     0.86640   0.28559   0.21763   0.00000  Uiso   1.00
C1186  C     0.82763   0.26658   0.22228   0.00000  Uiso   1.00
C1187  C     0.84348   0.31500   0.13249   0.00000  Uiso   1.00
C1188  C     0.80538   0.29334   0.13495   0.00000  Uiso   1.00
C1189  C     0.92081   0.31999   0.16830   0.00000  Uiso   1.00
C1190  C     0.87575   0.30819   0.17199   0.00000  Uiso   1.00
C1191  C     0.77032   0.23274   0.17325   0.00000  Uiso   1.00
C1192  C     0.80019   0.26588   0.17668   0.00000  Uiso   1.00
C1193  C     0.86329   0.28766   0.47131   0.00000  Uiso   1.00
C1194  C     0.82262   0.27142   0.47417   0.00000  Uiso   1.00
C1195  C     0.84741   0.31012   0.38032   0.00000  Uiso   1.00
C1196  C     0.80865   0.29029   0.38015   0.00000  Uiso   1.00
C1197  C     0.92186   0.31742   0.42023   0.00000  Uiso   1.00
C1198  C     0.87726   0.30629   0.42428   0.00000  Uiso   1.00
C1199  C     0.76987   0.23237   0.42328   0.00000  Uiso   1.00
C1200  C     0.79668   0.26766   0.42756   0.00000  Uiso   1.00
C1201  C     0.97457   0.39830   0.30068   0.00000  Uiso   1.00
C1202  C     0.86389   0.28512   0.72240   0.00000  Uiso   1.00
C1203  C     0.82751   0.26651   0.72021   0.00000  Uiso   1.00
C1204  C     0.84912   0.31112   0.63158   0.00000  Uiso   1.00
C1205  C     0.81202   0.28823   0.62856   0.00000  Uiso   1.00
C1206  C     0.92200   0.31546   0.67086   0.00000  Uiso   1.00
C1207  C     0.87875   0.30521   0.67484   0.00000  Uiso   1.00
C1208  C     0.77335   0.23217   0.67124   0.00000  Uiso   1.00
C1209  C     0.80278   0.26428   0.67345   0.00000  Uiso   1.00
C1210  C     0.86243   0.29961   0.97392   0.00000  Uiso   1.00
C1211  C     0.82774   0.27489   0.97458   0.00000  Uiso   1.00
C1212  C     0.84891   0.31320   0.87919   0.00000  Uiso   1.00
C1213  C     0.81594   0.28789   0.88027   0.00000  Uiso   1.00
C1214  C     0.92262   0.32338   0.91956   0.00000  Uiso   1.00
C1215  C     0.87609   0.31473   0.92487   0.00000  Uiso   1.00
C1216  C     0.77796   0.23075   0.92191   0.00000  Uiso   1.00
C1217  C     0.80474   0.26708   0.92660   0.00000  Uiso   1.00
C1218  C     0.97956   0.39966   0.79237   0.00000  Uiso   1.00
C1219  C     0.97381   0.39282   0.54351   0.00000  Uiso   1.00
C1220  C     0.86986   0.47491   0.30106   0.00000  Uiso   1.00
C1221  C     0.97731   0.40238   0.04604   0.00000  Uiso   1.00
C1222  C     0.82554   0.48978   0.29849   0.00000  Uiso   1.00
C1223  C     0.77270   0.56735   0.42635   0.00000  Uiso   1.00
C1224  C     0.91916   0.43310   0.34882   0.00000  Uiso   1.00
C1225  C     0.88148   0.45285   0.34542   0.00000  Uiso   1.00
C1226  C     0.82868   0.49421   0.04744   0.00000  Uiso   1.00
C1227  C     0.87315   0.48084   0.04912   0.00000  Uiso   1.00
C1228  C     0.95013   0.43700   0.04913   0.00000  Uiso   1.00
C1229  C     0.88650   0.46023   0.09487   0.00000  Uiso   1.00
C1230  C     0.92592   0.44223   0.09721   0.00000  Uiso   1.00
C1231  C     0.76954   0.57316   0.17089   0.00000  Uiso   1.00
C1232  C     0.94718   0.43336   0.30394   0.00000  Uiso   1.00
C1233  C     0.90093   0.48020   0.25938   0.00000  Uiso   1.00
C1234  C     0.93888   0.45896   0.25942   0.00000  Uiso   1.00
C1235  C     0.90376   0.48349   0.00528   0.00000  Uiso   1.00
C1236  C     0.80459   0.59853   0.43016   0.00000  Uiso   1.00
C1237  C     0.94010   0.46038   0.00380   0.00000  Uiso   1.00
C1238  C     0.92437   0.43307   0.84525   0.00000  Uiso   1.00
C1239  C     0.82686   0.48545   0.79652   0.00000  Uiso   1.00
C1240  C     0.95011   0.43194   0.79713   0.00000  Uiso   1.00
C1241  C     0.88412   0.44784   0.84189   0.00000  Uiso   1.00
C1242  C     0.89667   0.47396   0.50343   0.00000  Uiso   1.00
C1243  C     0.82545   0.48785   0.54763   0.00000  Uiso   1.00
C1244  C     0.86790   0.46997   0.54721   0.00000  Uiso   1.00
C1245  C     0.94162   0.42484   0.54757   0.00000  Uiso   1.00
C1246  C     0.87697   0.44454   0.59187   0.00000  Uiso   1.00
C1247  C     0.87184   0.47160   0.79783   0.00000  Uiso   1.00
C1248  C     0.91445   0.42472   0.59471   0.00000  Uiso   1.00
C1249  C     0.77511   0.56917   0.67163   0.00000  Uiso   1.00
C1250  C     0.90010   0.47590   0.75424   0.00000  Uiso   1.00
C1251  C     0.77290   0.57031   0.92454   0.00000  Uiso   1.00
C1252  C     0.93695   0.45353   0.75093   0.00000  Uiso   1.00
C1253  C     0.83195   0.59876   0.97502   0.00000  Uiso   1.00
C1254  C     0.93216   0.44935   0.50316   0.00000  Uiso   1.00
C1255  C     0.85090   0.64843   0.12567   0.00000  Uiso   1.00
C1256  C     0.86320   0.62740   0.21619   0.00000  Uiso   1.00
C1257  C     0.81231   0.62545   0.38638   0.00000  Uiso   1.00
C1258  C     0.92303   0.65482   0.16866   0.00000  Uiso   1.00
C1259  C     0.87784   0.64386   0.16946   0.00000  Uiso   1.00
C1260  C     0.85014   0.64714   0.38401   0.00000  Uiso   1.00
C1261  C     0.97355   0.73460   0.04773   0.00000  Uiso   1.00
C1262  C     0.94446   0.76863   0.05623   0.00000  Uiso   1.00
C1263  C     0.81030   0.62909   0.12583   0.00000  Uiso   1.00
C1264  C     0.91652   0.76661   0.10120   0.00000  Uiso   1.00
C1265  C     0.92438   0.65296   0.41985   0.00000  Uiso   1.00
C1266  C     0.88084   0.64063   0.42517   0.00000  Uiso   1.00
C1267  C     0.87186   0.61632   0.46936   0.00000  Uiso   1.00
C1268  C     0.97457   0.73337   0.29499   0.00000  Uiso   1.00
C1269  C     0.94360   0.76679   0.29677   0.00000  Uiso   1.00
C1270  C     0.91587   0.76535   0.34024   0.00000  Uiso   1.00
C1271  C     0.93515   0.79160   0.25240   0.00000  Uiso   1.00
C1272  C     0.87881   0.78667   0.34045   0.00000  Uiso   1.00
C1273  C     0.79900   0.60641   0.17184   0.00000  Uiso   1.00
C1274  C     0.87828   0.78603   0.10183   0.00000  Uiso   1.00
C1275  C     0.82258   0.61185   0.21990   0.00000  Uiso   1.00
C1276  C     0.93561   0.79314   0.01388   0.00000  Uiso   1.00
C1277  C     0.83271   0.60025   0.47493   0.00000  Uiso   1.00
C1278  C     0.85205   0.64584   0.62391   0.00000  Uiso   1.00
C1279  C     0.86553   0.62638   0.71824   0.00000  Uiso   1.00
C1280  C     0.92457   0.65757   0.66912   0.00000  Uiso   1.00
C1281  C     0.87976   0.64474   0.66973   0.00000  Uiso   1.00
C1282  C     0.84922   0.64763   0.88427   0.00000  Uiso   1.00
C1283  C     0.81403   0.62474   0.62536   0.00000  Uiso   1.00
C1284  C     0.97707   0.73580   0.54752   0.00000  Uiso   1.00
C1285  C     0.94949   0.76996   0.55249   0.00000  Uiso   1.00
C1286  C     0.92595   0.77446   0.60218   0.00000  Uiso   1.00
C1287  C     0.92430   0.65325   0.91980   0.00000  Uiso   1.00
C1288  C     0.88189   0.63965   0.92441   0.00000  Uiso   1.00
C1289  C     0.87240   0.61575   0.96937   0.00000  Uiso   1.00
C1290  C     0.81013   0.62931   0.88612   0.00000  Uiso   1.00
C1291  C     0.97992   0.73826   0.79654   0.00000  Uiso   1.00
C1292  C     0.95349   0.77465   0.79972   0.00000  Uiso   1.00
C1293  C     0.93976   0.79469   0.75268   0.00000  Uiso   1.00
C1294  C     0.92796   0.77587   0.84790   0.00000  Uiso   1.00
C1295  C     0.80388   0.60119   0.93012   0.00000  Uiso   1.00
C1296  C     0.88459   0.78918   0.59851   0.00000  Uiso   1.00
C1297  C     0.82694   0.60775   0.72125   0.00000  Uiso   1.00
C1298  C     0.88783   0.79193   0.84734   0.00000  Uiso   1.00
C1299  C     0.93925   0.79258   0.50579   0.00000  Uiso   1.00
C1300  C     0.80487   0.60289   0.67173   0.00000  Uiso   1.00
C1301  C     0.82366   0.82338   0.29720   0.00000  Uiso   1.00
C1302  C     0.86805   0.95740   0.21904   0.00000  Uiso   1.00
C1303  C     0.82819   0.94065   0.22104   0.00000  Uiso   1.00
C1304  C     0.85625   0.97947   0.12620   0.00000  Uiso   1.00
C1305  C     0.81972   0.95636   0.12442   0.00000  Uiso   1.00
C1306  C     0.88398   0.97506   0.17044   0.00000  Uiso   1.00
C1307  C     0.77187   0.90445   0.17045   0.00000  Uiso   1.00
C1308  C     0.80485   0.93785   0.17320   0.00000  Uiso   1.00
C1309  C     0.87367   0.95451   0.47029   0.00000  Uiso   1.00
C1310  C     0.83511   0.93440   0.46947   0.00000  Uiso   1.00
C1311  C     0.85341   0.97986   0.37913   0.00000  Uiso   1.00
C1312  C     0.81665   0.95719   0.38134   0.00000  Uiso   1.00
C1313  C     0.88277   0.97536   0.42230   0.00000  Uiso   1.00
C1314  C     0.77573   0.90203   0.42123   0.00000  Uiso   1.00
C1315  C     0.80839   0.93235   0.42383   0.00000  Uiso   1.00
C1316  C     0.92771   0.98971   0.41965   0.00000  Uiso   1.00
C1317  C     0.82539   0.82243   0.04980   0.00000  Uiso   1.00
C1318  C     0.92864   0.98827   0.16957   0.00000  Uiso   1.00
C1319  C     0.89721   0.81497   0.25304   0.00000  Uiso   1.00
C1320  C     0.86819   0.80836   0.05564   0.00000  Uiso   1.00
C1321  C     0.89934   0.81471   0.01547   0.00000  Uiso   1.00
C1322  C     0.86719   0.81034   0.29665   0.00000  Uiso   1.00
C1323  C     0.82730   0.81901   0.79732   0.00000  Uiso   1.00
C1324  C     0.90117   0.81311   0.50491   0.00000  Uiso   1.00
C1325  C     0.87091   0.95374   0.71810   0.00000  Uiso   1.00
C1326  C     0.83230   0.93530   0.72137   0.00000  Uiso   1.00
C1327  C     0.84982   0.98514   0.63350   0.00000  Uiso   1.00
C1328  C     0.81087   0.96344   0.63410   0.00000  Uiso   1.00
C1329  C     0.92597   0.99053   0.67103   0.00000  Uiso   1.00
C1330  C     0.87993   0.97920   0.67642   0.00000  Uiso   1.00
C1331  C     0.77375   0.90308   0.67587   0.00000  Uiso   1.00
C1332  C     0.80331   0.93552   0.67672   0.00000  Uiso   1.00
C1333  C     0.87011   0.96061   0.96922   0.00000  Uiso   1.00
C1334  C     0.83149   0.94073   0.97170   0.00000  Uiso   1.00
C1335  C     0.85311   0.98289   0.87790   0.00000  Uiso   1.00
C1336  C     0.81282   0.96207   0.88032   0.00000  Uiso   1.00
C1337  C     0.92762   0.99353   0.91740   0.00000  Uiso   1.00
C1338  C     0.88305   0.97917   0.92066   0.00000  Uiso   1.00
C1339  C     0.77569   0.90444   0.92197   0.00000  Uiso   1.00
C1340  C     0.80495   0.93924   0.92566   0.00000  Uiso   1.00
C1341  C     0.82522   0.82093   0.54763   0.00000  Uiso   1.00
C1342  C     0.87091   0.80950   0.54957   0.00000  Uiso   1.00
C1343  C     0.89904   0.81222   0.75365   0.00000  Uiso   1.00
C1344  C     0.87177   0.80750   0.79896   0.00000  Uiso   1.00
O1345  O     0.19456   0.17394   0.47065   0.00000  Uiso   1.00
O1346  O     0.23707   0.12195   0.09558   0.00000  Uiso   1.00
O1347  O     0.19320   0.18272   0.12500   0.00000  Uiso   1.00
O1348  O     0.06260   0.01029   0.24365   0.00000  Uiso   1.00
O1349  O     0.06208   0.00929   0.34233   0.00000  Uiso   1.00
O1350  O     0.19275   0.18021   0.21932   0.00000  Uiso   1.00
O1351  O     0.23484   0.12001   0.34445   0.00000  Uiso   1.00
O1352  O     0.19472   0.17955   0.37393   0.00000  Uiso   1.00
O1353  O     0.23548   0.12050   0.24813   0.00000  Uiso   1.00
O1354  O     0.06010   0.01279   0.09317   0.00000  Uiso   1.00
O1355  O     0.23432   0.12273   0.00087   0.00000  Uiso   1.00
O1356  O     0.06144   0.01059   0.49894   0.00000  Uiso   1.00
O1357  O     0.23864   0.11625   0.49962   0.00000  Uiso   1.00
O1358  O     0.19141   0.18169   0.97083   0.00000  Uiso   1.00
O1359  O     0.23934   0.11649   0.75058   0.00000  Uiso   1.00
O1360  O     0.24066   0.11809   0.59491   0.00000  Uiso   1.00
O1361  O     0.19324   0.17979   0.62307   0.00000  Uiso   1.00
O1362  O     0.19189   0.17081   0.71800   0.00000  Uiso   1.00
O1363  O     0.06043   0.01818   0.74526   0.00000  Uiso   1.00
O1364  O     0.23185   0.11837   0.84742   0.00000  Uiso   1.00
O1365  O     0.19192   0.18099   0.87497   0.00000  Uiso   1.00
O1366  O     0.05953   0.00992   0.59381   0.00000  Uiso   1.00
O1367  O     0.06078   0.01555   0.84077   0.00000  Uiso   1.00
O1368  O     0.06121   0.01533   0.99744   0.00000  Uiso   1.00
O1369  O     0.05407   0.33913   0.24922   0.00000  Uiso   1.00
O1370  O     0.01712   0.27580   0.36930   0.00000  Uiso   1.00
O1371  O     0.05478   0.33690   0.34233   0.00000  Uiso   1.00
O1372  O     0.01078   0.28065   0.21801   0.00000  Uiso   1.00
O1373  O     0.01495   0.28024   0.12138   0.00000  Uiso   1.00
O1374  O     0.00876   0.27410   0.46485   0.00000  Uiso   1.00
O1375  O     0.05450   0.34397   0.09330   0.00000  Uiso   1.00
O1376  O     0.05589   0.33362   0.49483   0.00000  Uiso   1.00
O1377  O     0.05546   0.34330   0.74806   0.00000  Uiso   1.00
O1378  O     0.01103   0.27826   0.87123   0.00000  Uiso   1.00
O1379  O     0.05569   0.33454   0.84092   0.00000  Uiso   1.00
O1380  O     0.01502   0.28156   0.72089   0.00000  Uiso   1.00
O1381  O     0.01244   0.28065   0.96879   0.00000  Uiso   1.00
O1382  O     0.05644   0.34401   0.99846   0.00000  Uiso   1.00
O1383  O     0.05579   0.33887   0.58980   0.00000  Uiso   1.00
O1384  O     0.01302   0.27609   0.62501   0.00000  Uiso   1.00
O1385  O     0.18977   0.50183   0.46854   0.00000  Uiso   1.00
O1386  O     0.22771   0.44720   0.24571   0.00000  Uiso   1.00
O1387  O     0.22955   0.44547   0.34077   0.00000  Uiso   1.00
O1388  O     0.19007   0.51059   0.21644   0.00000  Uiso   1.00
O1389  O     0.18722   0.50713   0.12204   0.00000  Uiso   1.00
O1390  O     0.18914   0.50865   0.37376   0.00000  Uiso   1.00
O1391  O     0.23020   0.44931   0.09393   0.00000  Uiso   1.00
O1392  O     0.22870   0.44359   0.49885   0.00000  Uiso   1.00
O1393  O     0.19063   0.50841   0.96790   0.00000  Uiso   1.00
O1394  O     0.22722   0.44975   0.84326   0.00000  Uiso   1.00
O1395  O     0.19147   0.50627   0.71607   0.00000  Uiso   1.00
O1396  O     0.23203   0.44559   0.74621   0.00000  Uiso   1.00
O1397  O     0.19085   0.51172   0.87182   0.00000  Uiso   1.00
O1398  O     0.19166   0.50889   0.62005   0.00000  Uiso   1.00
O1399  O     0.23093   0.44666   0.59350   0.00000  Uiso   1.00
O1400  O     0.22914   0.44707   0.99937   0.00000  Uiso   1.00
O1401  O     0.05652   0.67623   0.34337   0.00000  Uiso   1.00
O1402  O     0.05746   0.67470   0.24813   0.00000  Uiso   1.00
O1403  O     0.23416   0.77818   0.25074   0.00000  Uiso   1.00
O1404  O     0.01379   0.61607   0.46866   0.00000  Uiso   1.00
O1405  O     0.01829   0.61670   0.37394   0.00000  Uiso   1.00
O1406  O     0.23348   0.77929   0.34583   0.00000  Uiso   1.00
O1407  O     0.01632   0.61425   0.11849   0.00000  Uiso   1.00
O1408  O     0.01411   0.61446   0.21425   0.00000  Uiso   1.00
O1409  O     0.23441   0.78187   0.09258   0.00000  Uiso   1.00
O1410  O     0.05621   0.67621   0.09381   0.00000  Uiso   1.00
O1411  O     0.05739   0.67867   0.49813   0.00000  Uiso   1.00
O1412  O     0.01564   0.62128   0.96536   0.00000  Uiso   1.00
O1413  O     0.05967   0.67682   0.74349   0.00000  Uiso   1.00
O1414  O     0.23542   0.78211   0.75104   0.00000  Uiso   1.00
O1415  O     0.23502   0.78222   0.84497   0.00000  Uiso   1.00
O1416  O     0.05890   0.67857   0.84025   0.00000  Uiso   1.00
O1417  O     0.01678   0.61728   0.62263   0.00000  Uiso   1.00
O1418  O     0.01483   0.61880   0.71687   0.00000  Uiso   1.00
O1419  O     0.23744   0.77922   0.59815   0.00000  Uiso   1.00
O1420  O     0.05825   0.67772   0.59457   0.00000  Uiso   1.00
O1421  O     0.01552   0.61738   0.86972   0.00000  Uiso   1.00
O1422  O     0.23309   0.78052   0.99612   0.00000  Uiso   1.00
O1423  O     0.05558   0.68016   0.99848   0.00000  Uiso   1.00
O1424  O     0.23284   0.77934   0.50103   0.00000  Uiso   1.00
O1425  O     0.01893   0.94923   0.11953   0.00000  Uiso   1.00
O1426  O     0.19124   0.84065   0.12190   0.00000  Uiso   1.00
O1427  O     0.01934   0.95080   0.21563   0.00000  Uiso   1.00
O1428  O     0.19148   0.83790   0.21839   0.00000  Uiso   1.00
O1429  O     0.02198   0.94953   0.37270   0.00000  Uiso   1.00
O1430  O     0.19531   0.84287   0.37594   0.00000  Uiso   1.00
O1431  O     0.01604   0.94954   0.46655   0.00000  Uiso   1.00
O1432  O     0.19631   0.84044   0.47138   0.00000  Uiso   1.00
O1433  O     0.01700   0.95061   0.62358   0.00000  Uiso   1.00
O1434  O     0.19168   0.84030   0.62504   0.00000  Uiso   1.00
O1435  O     0.02050   0.95612   0.71796   0.00000  Uiso   1.00
O1436  O     0.19228   0.84125   0.71865   0.00000  Uiso   1.00
O1437  O     0.02129   0.95576   0.87308   0.00000  Uiso   1.00
O1438  O     0.19045   0.84099   0.87353   0.00000  Uiso   1.00
O1439  O     0.02236   0.95806   0.96723   0.00000  Uiso   1.00
O1440  O     0.19225   0.84245   0.97101   0.00000  Uiso   1.00
O1441  O     0.30680   0.16457   0.24768   0.00000  Uiso   1.00
O1442  O     0.30688   0.16271   0.34547   0.00000  Uiso   1.00
O1443  O     0.47716   0.05114   0.34154   0.00000  Uiso   1.00
O1444  O     0.48065   0.05648   0.24472   0.00000  Uiso   1.00
O1445  O     0.47986   0.05245   0.09128   0.00000  Uiso   1.00
O1446  O     0.30719   0.16576   0.09444   0.00000  Uiso   1.00
O1447  O     0.30759   0.16612   0.49936   0.00000  Uiso   1.00
O1448  O     0.48534   0.05659   0.49469   0.00000  Uiso   1.00
O1449  O     0.48482   0.05917   0.74521   0.00000  Uiso   1.00
O1450  O     0.30259   0.16082   0.84381   0.00000  Uiso   1.00
O1451  O     0.30706   0.16671   0.74790   0.00000  Uiso   1.00
O1452  O     0.48673   0.05442   0.84183   0.00000  Uiso   1.00
O1453  O     0.47452   0.05146   0.59032   0.00000  Uiso   1.00
O1454  O     0.30809   0.16306   0.59390   0.00000  Uiso   1.00
O1455  O     0.48403   0.05589   0.99634   0.00000  Uiso   1.00
O1456  O     0.30674   0.16415   0.99969   0.00000  Uiso   1.00
O1457  O     0.48450   0.38576   0.24996   0.00000  Uiso   1.00
O1458  O     0.44367   0.32052   0.37197   0.00000  Uiso   1.00
O1459  O     0.26603   0.22342   0.37379   0.00000  Uiso   1.00
O1460  O     0.26333   0.22298   0.22129   0.00000  Uiso   1.00
O1461  O     0.44438   0.32305   0.21984   0.00000  Uiso   1.00
O1462  O     0.26387   0.22678   0.12558   0.00000  Uiso   1.00
O1463  O     0.44519   0.31562   0.12565   0.00000  Uiso   1.00
O1464  O     0.48198   0.38396   0.34617   0.00000  Uiso   1.00
O1465  O     0.47769   0.37888   0.09549   0.00000  Uiso   1.00
O1466  O     0.25916   0.22362   0.46986   0.00000  Uiso   1.00
O1467  O     0.44436   0.32329   0.46874   0.00000  Uiso   1.00
O1468  O     0.48195   0.38591   0.00054   0.00000  Uiso   1.00
O1469  O     0.48367   0.38366   0.49959   0.00000  Uiso   1.00
O1470  O     0.48768   0.38642   0.84293   0.00000  Uiso   1.00
O1471  O     0.44686   0.32227   0.87067   0.00000  Uiso   1.00
O1472  O     0.47736   0.38180   0.74848   0.00000  Uiso   1.00
O1473  O     0.25741   0.22227   0.71689   0.00000  Uiso   1.00
O1474  O     0.44739   0.31629   0.72054   0.00000  Uiso   1.00
O1475  O     0.26509   0.22375   0.62376   0.00000  Uiso   1.00
O1476  O     0.44553   0.31908   0.62421   0.00000  Uiso   1.00
O1477  O     0.26590   0.22267   0.87224   0.00000  Uiso   1.00
O1478  O     0.48414   0.38295   0.59470   0.00000  Uiso   1.00
O1479  O     0.26096   0.22577   0.96728   0.00000  Uiso   1.00
O1480  O     0.44716   0.32165   0.96768   0.00000  Uiso   1.00
O1481  O     0.26699   0.54990   0.22216   0.00000  Uiso   1.00
O1482  O     0.30146   0.48484   0.34481   0.00000  Uiso   1.00
O1483  O     0.30294   0.48390   0.49655   0.00000  Uiso   1.00
O1484  O     0.30156   0.48478   0.24914   0.00000  Uiso   1.00
O1485  O     0.25990   0.55421   0.12725   0.00000  Uiso   1.00
O1486  O     0.30268   0.49273   0.09503   0.00000  Uiso   1.00
O1487  O     0.26385   0.54504   0.46602   0.00000  Uiso   1.00
O1488  O     0.26334   0.54841   0.37156   0.00000  Uiso   1.00
O1489  O     0.30644   0.49010   0.74602   0.00000  Uiso   1.00
O1490  O     0.30154   0.48973   0.84198   0.00000  Uiso   1.00
O1491  O     0.26390   0.54939   0.62198   0.00000  Uiso   1.00
O1492  O     0.30556   0.48662   0.59234   0.00000  Uiso   1.00
O1493  O     0.26234   0.54969   0.71775   0.00000  Uiso   1.00
O1494  O     0.26484   0.54822   0.96830   0.00000  Uiso   1.00
O1495  O     0.26717   0.54965   0.87131   0.00000  Uiso   1.00
O1496  O     0.30243   0.48595   0.99923   0.00000  Uiso   1.00
O1497  O     0.48072   0.71268   0.34156   0.00000  Uiso   1.00
O1498  O     0.44089   0.65113   0.37420   0.00000  Uiso   1.00
O1499  O     0.48001   0.71412   0.24835   0.00000  Uiso   1.00
O1500  O     0.43909   0.65582   0.12095   0.00000  Uiso   1.00
O1501  O     0.44171   0.65516   0.47113   0.00000  Uiso   1.00
O1502  O     0.48675   0.71385   0.09281   0.00000  Uiso   1.00
O1503  O     0.44350   0.65468   0.21609   0.00000  Uiso   1.00
O1504  O     0.48630   0.71560   0.84280   0.00000  Uiso   1.00
O1505  O     0.44661   0.65494   0.96575   0.00000  Uiso   1.00
O1506  O     0.48692   0.71550   0.59483   0.00000  Uiso   1.00
O1507  O     0.48336   0.71552   0.74761   0.00000  Uiso   1.00
O1508  O     0.44336   0.65279   0.87053   0.00000  Uiso   1.00
O1509  O     0.44399   0.65380   0.71658   0.00000  Uiso   1.00
O1510  O     0.44185   0.65660   0.62189   0.00000  Uiso   1.00
O1511  O     0.48545   0.71637   0.99651   0.00000  Uiso   1.00
O1512  O     0.48470   0.71574   0.50097   0.00000  Uiso   1.00
O1513  O     0.43961   0.99612   0.46850   0.00000  Uiso   1.00
O1514  O     0.30789   0.82014   0.34263   0.00000  Uiso   1.00
O1515  O     0.44052   0.98739   0.37523   0.00000  Uiso   1.00
O1516  O     0.26453   0.88082   0.21932   0.00000  Uiso   1.00
O1517  O     0.44030   0.98820   0.11943   0.00000  Uiso   1.00
O1518  O     0.26461   0.88141   0.12427   0.00000  Uiso   1.00
O1519  O     0.30469   0.81868   0.09581   0.00000  Uiso   1.00
O1520  O     0.26699   0.88099   0.46898   0.00000  Uiso   1.00
O1521  O     0.30798   0.82119   0.24554   0.00000  Uiso   1.00
O1522  O     0.30797   0.82292   0.00207   0.00000  Uiso   1.00
O1523  O     0.27047   0.88201   0.37261   0.00000  Uiso   1.00
O1524  O     0.43927   0.99521   0.21800   0.00000  Uiso   1.00
O1525  O     0.30470   0.82543   0.84474   0.00000  Uiso   1.00
O1526  O     0.43966   0.99872   0.71674   0.00000  Uiso   1.00
O1527  O     0.44377   0.98585   0.62089   0.00000  Uiso   1.00
O1528  O     0.26299   0.88304   0.71967   0.00000  Uiso   1.00
O1529  O     0.26484   0.88664   0.87453   0.00000  Uiso   1.00
O1530  O     0.26405   0.88349   0.62370   0.00000  Uiso   1.00
O1531  O     0.30813   0.82249   0.59722   0.00000  Uiso   1.00
O1532  O     0.26275   0.88414   0.97186   0.00000  Uiso   1.00
O1533  O     0.30642   0.82470   0.74935   0.00000  Uiso   1.00
O1534  O     0.44251   0.99383   0.96501   0.00000  Uiso   1.00
O1535  O     0.44170   0.99330   0.87086   0.00000  Uiso   1.00
O1536  O     0.31032   0.81904   0.50091   0.00000  Uiso   1.00
O1537  O     0.69302   0.17143   0.47047   0.00000  Uiso   1.00
O1538  O     0.55191   0.01301   0.09301   0.00000  Uiso   1.00
O1539  O     0.73637   0.11417   0.09816   0.00000  Uiso   1.00
O1540  O     0.69374   0.17358   0.12187   0.00000  Uiso   1.00
O1541  O     0.55320   0.01614   0.34034   0.00000  Uiso   1.00
O1542  O     0.69345   0.17134   0.21884   0.00000  Uiso   1.00
O1543  O     0.55303   0.01316   0.24515   0.00000  Uiso   1.00
O1544  O     0.73578   0.11493   0.34382   0.00000  Uiso   1.00
O1545  O     0.69268   0.17525   0.37478   0.00000  Uiso   1.00
O1546  O     0.73664   0.11166   0.24850   0.00000  Uiso   1.00
O1547  O     0.73766   0.11040   0.49648   0.00000  Uiso   1.00
O1548  O     0.55545   0.00695   0.49251   0.00000  Uiso   1.00
O1549  O     0.73528   0.11202   0.00158   0.00000  Uiso   1.00
O1550  O     0.69265   0.17316   0.97133   0.00000  Uiso   1.00
O1551  O     0.55627   0.01361   0.99942   0.00000  Uiso   1.00
O1552  O     0.55260   0.01787   0.58737   0.00000  Uiso   1.00
O1553  O     0.73297   0.11420   0.59201   0.00000  Uiso   1.00
O1554  O     0.69639   0.17736   0.62463   0.00000  Uiso   1.00
O1555  O     0.55727   0.01325   0.74462   0.00000  Uiso   1.00
O1556  O     0.69642   0.16765   0.72139   0.00000  Uiso   1.00
O1557  O     0.73558   0.11267   0.84497   0.00000  Uiso   1.00
O1558  O     0.69407   0.17653   0.87586   0.00000  Uiso   1.00
O1559  O     0.74094   0.10823   0.74898   0.00000  Uiso   1.00
O1560  O     0.55650   0.00928   0.84072   0.00000  Uiso   1.00
O1561  O     0.55584   0.34451   0.24557   0.00000  Uiso   1.00
O1562  O     0.51840   0.28083   0.37051   0.00000  Uiso   1.00
O1563  O     0.55581   0.34609   0.34347   0.00000  Uiso   1.00
O1564  O     0.52330   0.28213   0.12572   0.00000  Uiso   1.00
O1565  O     0.55706   0.34575   0.09363   0.00000  Uiso   1.00
O1566  O     0.51494   0.27977   0.46506   0.00000  Uiso   1.00
O1567  O     0.51457   0.28236   0.22232   0.00000  Uiso   1.00
O1568  O     0.55736   0.34182   0.49575   0.00000  Uiso   1.00
O1569  O     0.52106   0.28285   0.62439   0.00000  Uiso   1.00
O1570  O     0.55895   0.34929   0.74876   0.00000  Uiso   1.00
O1571  O     0.52004   0.28103   0.87148   0.00000  Uiso   1.00
O1572  O     0.55507   0.34725   0.59348   0.00000  Uiso   1.00
O1573  O     0.55903   0.34526   0.84588   0.00000  Uiso   1.00
O1574  O     0.51983   0.28562   0.96781   0.00000  Uiso   1.00
O1575  O     0.52501   0.28303   0.71959   0.00000  Uiso   1.00
O1576  O     0.55766   0.34553   0.99799   0.00000  Uiso   1.00
O1577  O     0.69031   0.50751   0.47360   0.00000  Uiso   1.00
O1578  O     0.69150   0.51015   0.37892   0.00000  Uiso   1.00
O1579  O     0.69435   0.51551   0.12529   0.00000  Uiso   1.00
O1580  O     0.73403   0.45399   0.09473   0.00000  Uiso   1.00
O1581  O     0.69444   0.51028   0.21942   0.00000  Uiso   1.00
O1582  O     0.73701   0.44838   0.24691   0.00000  Uiso   1.00
O1583  O     0.73112   0.45060   0.34206   0.00000  Uiso   1.00
O1584  O     0.73048   0.45190   0.75253   0.00000  Uiso   1.00
O1585  O     0.69727   0.50805   0.96813   0.00000  Uiso   1.00
O1586  O     0.73723   0.44690   0.59569   0.00000  Uiso   1.00
O1587  O     0.69512   0.51156   0.87313   0.00000  Uiso   1.00
O1588  O     0.69492   0.51442   0.72022   0.00000  Uiso   1.00
O1589  O     0.69180   0.50605   0.62315   0.00000  Uiso   1.00
O1590  O     0.73796   0.44954   0.84502   0.00000  Uiso   1.00
O1591  O     0.73279   0.44662   0.50002   0.00000  Uiso   1.00
O1592  O     0.74081   0.44969   0.99762   0.00000  Uiso   1.00
O1593  O     0.72792   0.78582   0.34429   0.00000  Uiso   1.00
O1594  O     0.55772   0.67389   0.24638   0.00000  Uiso   1.00
O1595  O     0.51465   0.61520   0.46941   0.00000  Uiso   1.00
O1596  O     0.72922   0.78213   0.24905   0.00000  Uiso   1.00
O1597  O     0.55458   0.67429   0.34469   0.00000  Uiso   1.00
O1598  O     0.51259   0.61129   0.37328   0.00000  Uiso   1.00
O1599  O     0.51101   0.60921   0.12227   0.00000  Uiso   1.00
O1600  O     0.51532   0.61227   0.21765   0.00000  Uiso   1.00
O1601  O     0.73116   0.78586   0.09297   0.00000  Uiso   1.00
O1602  O     0.55631   0.67138   0.09467   0.00000  Uiso   1.00
O1603  O     0.73159   0.78149   0.49761   0.00000  Uiso   1.00
O1604  O     0.55615   0.67465   0.49522   0.00000  Uiso   1.00
O1605  O     0.51206   0.61211   0.62359   0.00000  Uiso   1.00
O1606  O     0.55774   0.67588   0.74691   0.00000  Uiso   1.00
O1607  O     0.73193   0.78588   0.84621   0.00000  Uiso   1.00
O1608  O     0.73368   0.78139   0.75341   0.00000  Uiso   1.00
O1609  O     0.55715   0.67869   0.84181   0.00000  Uiso   1.00
O1610  O     0.55706   0.67125   0.99978   0.00000  Uiso   1.00
O1611  O     0.51797   0.61289   0.87012   0.00000  Uiso   1.00
O1612  O     0.55551   0.67179   0.59166   0.00000  Uiso   1.00
O1613  O     0.51269   0.61208   0.96570   0.00000  Uiso   1.00
O1614  O     0.73205   0.78424   0.59209   0.00000  Uiso   1.00
O1615  O     0.51786   0.61390   0.71736   0.00000  Uiso   1.00
O1616  O     0.73237   0.78453   0.99582   0.00000  Uiso   1.00
O1617  O     0.51270   0.95054   0.12018   0.00000  Uiso   1.00
O1618  O     0.69158   0.84780   0.12360   0.00000  Uiso   1.00
O1619  O     0.51094   0.95383   0.21569   0.00000  Uiso   1.00
O1620  O     0.69307   0.84589   0.21782   0.00000  Uiso   1.00
O1621  O     0.51789   0.95148   0.36927   0.00000  Uiso   1.00
O1622  O     0.69086   0.84888   0.37278   0.00000  Uiso   1.00
O1623  O     0.51019   0.95129   0.46639   0.00000  Uiso   1.00
O1624  O     0.69251   0.84343   0.46910   0.00000  Uiso   1.00
O1625  O     0.69614   0.84793   0.96420   0.00000  Uiso   1.00
O1626  O     0.52248   0.95401   0.62186   0.00000  Uiso   1.00
O1627  O     0.69177   0.84451   0.62276   0.00000  Uiso   1.00
O1628  O     0.50901   0.95284   0.71447   0.00000  Uiso   1.00
O1629  O     0.69362   0.84206   0.71938   0.00000  Uiso   1.00
O1630  O     0.51469   0.94760   0.86975   0.00000  Uiso   1.00
O1631  O     0.69530   0.85022   0.87156   0.00000  Uiso   1.00
O1632  O     0.51275   0.95225   0.96603   0.00000  Uiso   1.00
O1633  O     0.98472   0.05223   0.24538   0.00000  Uiso   1.00
O1634  O     0.80725   0.15794   0.34399   0.00000  Uiso   1.00
O1635  O     0.80822   0.15645   0.24842   0.00000  Uiso   1.00
O1636  O     0.98856   0.05070   0.34106   0.00000  Uiso   1.00
O1637  O     0.80796   0.15308   0.49295   0.00000  Uiso   1.00
O1638  O     0.98955   0.05438   0.09475   0.00000  Uiso   1.00
O1639  O     0.80661   0.15888   0.09764   0.00000  Uiso   1.00
O1640  O     0.98937   0.05318   0.49558   0.00000  Uiso   1.00
O1641  O     0.80926   0.15420   0.00108   0.00000  Uiso   1.00
O1642  O     0.80808   0.15137   0.84347   0.00000  Uiso   1.00
O1643  O     0.98393   0.05686   0.74560   0.00000  Uiso   1.00
O1644  O     0.98914   0.05702   0.84130   0.00000  Uiso   1.00
O1645  O     0.80943   0.15591   0.74738   0.00000  Uiso   1.00
O1646  O     0.98792   0.05260   0.59043   0.00000  Uiso   1.00
O1647  O     0.81037   0.15194   0.59092   0.00000  Uiso   1.00
O1648  O     0.98725   0.05657   0.99867   0.00000  Uiso   1.00
O1649  O     0.76654   0.21557   0.37453   0.00000  Uiso   1.00
O1650  O     0.98325   0.38299   0.25060   0.00000  Uiso   1.00
O1651  O     0.98262   0.38062   0.34643   0.00000  Uiso   1.00
O1652  O     0.94022   0.31865   0.37202   0.00000  Uiso   1.00
O1653  O     0.76372   0.21509   0.22055   0.00000  Uiso   1.00
O1654  O     0.93998   0.32558   0.21555   0.00000  Uiso   1.00
O1655  O     0.76218   0.21704   0.12427   0.00000  Uiso   1.00
O1656  O     0.94078   0.32223   0.11993   0.00000  Uiso   1.00
O1657  O     0.98450   0.38461   0.09280   0.00000  Uiso   1.00
O1658  O     0.76433   0.21360   0.46842   0.00000  Uiso   1.00
O1659  O     0.94269   0.32125   0.46666   0.00000  Uiso   1.00
O1660  O     0.98505   0.37827   0.49585   0.00000  Uiso   1.00
O1661  O     0.77038   0.21401   0.87364   0.00000  Uiso   1.00
O1662  O     0.99107   0.38393   0.84048   0.00000  Uiso   1.00
O1663  O     0.98131   0.38186   0.74402   0.00000  Uiso   1.00
O1664  O     0.76319   0.21426   0.71851   0.00000  Uiso   1.00
O1665  O     0.94265   0.31955   0.71789   0.00000  Uiso   1.00
O1666  O     0.77259   0.21489   0.62324   0.00000  Uiso   1.00
O1667  O     0.94100   0.31957   0.62154   0.00000  Uiso   1.00
O1668  O     0.94026   0.32565   0.87060   0.00000  Uiso   1.00
O1669  O     0.98208   0.37886   0.59108   0.00000  Uiso   1.00
O1670  O     0.76864   0.21462   0.96908   0.00000  Uiso   1.00
O1671  O     0.94326   0.32670   0.96642   0.00000  Uiso   1.00
O1672  O     0.98437   0.38642   0.99745   0.00000  Uiso   1.00
O1673  O     0.80402   0.49061   0.34477   0.00000  Uiso   1.00
O1674  O     0.76683   0.55500   0.12396   0.00000  Uiso   1.00
O1675  O     0.80808   0.49220   0.09340   0.00000  Uiso   1.00
O1676  O     0.76445   0.55041   0.47361   0.00000  Uiso   1.00
O1677  O     0.76316   0.55139   0.37677   0.00000  Uiso   1.00
O1678  O     0.76455   0.55531   0.21968   0.00000  Uiso   1.00
O1679  O     0.80738   0.49269   0.25132   0.00000  Uiso   1.00
O1680  O     0.80472   0.48921   0.49777   0.00000  Uiso   1.00
O1681  O     0.80917   0.49281   0.84417   0.00000  Uiso   1.00
O1682  O     0.76345   0.55375   0.62476   0.00000  Uiso   1.00
O1683  O     0.80699   0.49353   0.59607   0.00000  Uiso   1.00
O1684  O     0.76861   0.55160   0.71869   0.00000  Uiso   1.00
O1685  O     0.76275   0.55204   0.97062   0.00000  Uiso   1.00
O1686  O     0.76802   0.55494   0.87472   0.00000  Uiso   1.00
O1687  O     0.80614   0.48703   0.74969   0.00000  Uiso   1.00
O1688  O     0.81099   0.49454   0.99925   0.00000  Uiso   1.00
O1689  O     0.98350   0.71670   0.34311   0.00000  Uiso   1.00
O1690  O     0.94406   0.65845   0.46751   0.00000  Uiso   1.00
O1691  O     0.98100   0.71681   0.24566   0.00000  Uiso   1.00
O1692  O     0.98450   0.71641   0.09458   0.00000  Uiso   1.00
O1693  O     0.98273   0.72014   0.49898   0.00000  Uiso   1.00
O1694  O     0.94329   0.65346   0.12112   0.00000  Uiso   1.00
O1695  O     0.94296   0.65754   0.37044   0.00000  Uiso   1.00
O1696  O     0.94201   0.65568   0.21598   0.00000  Uiso   1.00
O1697  O     0.98428   0.72028   0.84262   0.00000  Uiso   1.00
O1698  O     0.99006   0.72022   0.59271   0.00000  Uiso   1.00
O1699  O     0.94438   0.65645   0.96755   0.00000  Uiso   1.00
O1700  O     0.94384   0.66222   0.62339   0.00000  Uiso   1.00
O1701  O     0.94240   0.65906   0.87105   0.00000  Uiso   1.00
O1702  O     0.98685   0.72283   0.74834   0.00000  Uiso   1.00
O1703  O     0.94316   0.66271   0.71820   0.00000  Uiso   1.00
O1704  O     0.98207   0.72027   0.99737   0.00000  Uiso   1.00
O1705  O     0.76627   0.88766   0.37309   0.00000  Uiso   1.00
O1706  O     0.94723   0.98886   0.37046   0.00000  Uiso   1.00
O1707  O     0.80458   0.82269   0.34555   0.00000  Uiso   1.00
O1708  O     0.94873   0.99028   0.21805   0.00000  Uiso   1.00
O1709  O     0.80578   0.82187   0.49734   0.00000  Uiso   1.00
O1710  O     0.76427   0.88567   0.21661   0.00000  Uiso   1.00
O1711  O     0.76299   0.88735   0.12209   0.00000  Uiso   1.00
O1712  O     0.80408   0.82681   0.09604   0.00000  Uiso   1.00
O1713  O     0.76623   0.88392   0.47020   0.00000  Uiso   1.00
O1714  O     0.80536   0.82709   0.24713   0.00000  Uiso   1.00
O1715  O     0.94836   0.99350   0.11973   0.00000  Uiso   1.00
O1716  O     0.94757   0.99381   0.46778   0.00000  Uiso   1.00
O1717  O     0.94692   0.99343   0.71872   0.00000  Uiso   1.00
O1718  O     0.94432   0.99309   0.62215   0.00000  Uiso   1.00
O1719  O     0.80763   0.82016   0.84521   0.00000  Uiso   1.00
O1720  O     0.94699   0.99453   0.86963   0.00000  Uiso   1.00
O1721  O     0.76851   0.88326   0.72204   0.00000  Uiso   1.00
O1722  O     0.76831   0.88684   0.62609   0.00000  Uiso   1.00
O1723  O     0.94812   0.99668   0.96402   0.00000  Uiso   1.00
O1724  O     0.80682   0.82576   0.59613   0.00000  Uiso   1.00
O1725  O     0.76727   0.88818   0.96986   0.00000  Uiso   1.00
O1726  O     0.80808   0.82396   0.75013   0.00000  Uiso   1.00
O1727  O     0.77207   0.88648   0.87335   0.00000  Uiso   1.00
O1728  O     0.80754   0.82428   0.99991   0.00000  Uiso   1.00
O1729  O     0.23751   0.18623   0.29527   0.00000  Uiso   1.00
O1730  O     0.01434   0.01584   0.41968   0.00000  Uiso   1.00
O1731  O     0.01460   0.01771   0.17071   0.00000  Uiso   1.00
O1732  O     0.23883   0.18793   0.04713   0.00000  Uiso   1.00
O1733  O     0.23586   0.18426   0.79576   0.00000  Uiso   1.00
O1734  O     0.01523   0.02392   0.91945   0.00000  Uiso   1.00
O1735  O     0.23892   0.18647   0.54660   0.00000  Uiso   1.00
O1736  O     0.01334   0.02028   0.67097   0.00000  Uiso   1.00
O1737  O     0.00914   0.34723   0.17180   0.00000  Uiso   1.00
O1738  O     0.00839   0.34273   0.41988   0.00000  Uiso   1.00
O1739  O     0.01092   0.34587   0.66867   0.00000  Uiso   1.00
O1740  O     0.00954   0.34712   0.91829   0.00000  Uiso   1.00
O1741  O     0.23520   0.51302   0.29553   0.00000  Uiso   1.00
O1742  O     0.23489   0.51611   0.04628   0.00000  Uiso   1.00
O1743  O     0.23758   0.51215   0.54338   0.00000  Uiso   1.00
O1744  O     0.23494   0.51363   0.79543   0.00000  Uiso   1.00
O1745  O     0.01074   0.68017   0.17016   0.00000  Uiso   1.00
O1746  O     0.01103   0.68458   0.41899   0.00000  Uiso   1.00
O1747  O     0.01320   0.68541   0.67144   0.00000  Uiso   1.00
O1748  O     0.01047   0.68453   0.91912   0.00000  Uiso   1.00
O1749  O     0.23867   0.84410   0.29504   0.00000  Uiso   1.00
O1750  O     0.23780   0.84638   0.04607   0.00000  Uiso   1.00
O1751  O     0.24041   0.84833   0.79766   0.00000  Uiso   1.00
O1752  O     0.24046   0.84369   0.54721   0.00000  Uiso   1.00
O1753  O     0.26094   0.15577   0.42128   0.00000  Uiso   1.00
O1754  O     0.26144   0.15858   0.17147   0.00000  Uiso   1.00
O1755  O     0.25939   0.15708   0.92161   0.00000  Uiso   1.00
O1756  O     0.26172   0.15308   0.67171   0.00000  Uiso   1.00
O1757  O     0.49213   0.32184   0.29540   0.00000  Uiso   1.00
O1758  O     0.49119   0.31592   0.04544   0.00000  Uiso   1.00
O1759  O     0.49519   0.31650   0.79576   0.00000  Uiso   1.00
O1760  O     0.49304   0.31663   0.54548   0.00000  Uiso   1.00
O1761  O     0.25410   0.47827   0.42017   0.00000  Uiso   1.00
O1762  O     0.25510   0.48447   0.17164   0.00000  Uiso   1.00
O1763  O     0.25539   0.48152   0.92066   0.00000  Uiso   1.00
O1764  O     0.26086   0.48251   0.66861   0.00000  Uiso   1.00
O1765  O     0.48670   0.64639   0.29488   0.00000  Uiso   1.00
O1766  O     0.48734   0.64693   0.04444   0.00000  Uiso   1.00
O1767  O     0.48778   0.65033   0.54465   0.00000  Uiso   1.00
O1768  O     0.48949   0.64948   0.79404   0.00000  Uiso   1.00
O1769  O     0.25668   0.81381   0.17058   0.00000  Uiso   1.00
O1770  O     0.26253   0.81585   0.42242   0.00000  Uiso   1.00
O1771  O     0.48764   0.98651   0.04414   0.00000  Uiso   1.00
O1772  O     0.48537   0.98639   0.29463   0.00000  Uiso   1.00
O1773  O     0.25898   0.81977   0.92151   0.00000  Uiso   1.00
O1774  O     0.49084   0.98658   0.54486   0.00000  Uiso   1.00
O1775  O     0.25921   0.81582   0.67352   0.00000  Uiso   1.00
O1776  O     0.48851   0.98812   0.79220   0.00000  Uiso   1.00
O1777  O     0.74014   0.18069   0.29801   0.00000  Uiso   1.00
O1778  O     0.73902   0.18013   0.04792   0.00000  Uiso   1.00
O1779  O     0.50434   0.01854   0.17009   0.00000  Uiso   1.00
O1780  O     0.50642   0.01795   0.41657   0.00000  Uiso   1.00
O1781  O     0.74067   0.17712   0.79917   0.00000  Uiso   1.00
O1782  O     0.50621   0.02137   0.66720   0.00000  Uiso   1.00
O1783  O     0.74038   0.17704   0.54595   0.00000  Uiso   1.00
O1784  O     0.51064   0.01799   0.91869   0.00000  Uiso   1.00
O1785  O     0.51099   0.34813   0.42344   0.00000  Uiso   1.00
O1786  O     0.50987   0.34798   0.16972   0.00000  Uiso   1.00
O1787  O     0.51344   0.35246   0.92284   0.00000  Uiso   1.00
O1788  O     0.51063   0.34979   0.67122   0.00000  Uiso   1.00
O1789  O     0.73966   0.51687   0.04508   0.00000  Uiso   1.00
O1790  O     0.73921   0.51610   0.29841   0.00000  Uiso   1.00
O1791  O     0.73930   0.51496   0.54732   0.00000  Uiso   1.00
O1792  O     0.74301   0.51892   0.79831   0.00000  Uiso   1.00
O1793  O     0.51056   0.67951   0.17034   0.00000  Uiso   1.00
O1794  O     0.50815   0.68082   0.41951   0.00000  Uiso   1.00
O1795  O     0.51136   0.67960   0.92008   0.00000  Uiso   1.00
O1796  O     0.51339   0.68085   0.67075   0.00000  Uiso   1.00
O1797  O     0.73897   0.85137   0.29336   0.00000  Uiso   1.00
O1798  O     0.73901   0.85137   0.04594   0.00000  Uiso   1.00
O1799  O     0.74116   0.85070   0.54784   0.00000  Uiso   1.00
O1800  O     0.74094   0.85066   0.79777   0.00000  Uiso   1.00
O1801  O     0.76211   0.14926   0.17155   0.00000  Uiso   1.00
O1802  O     0.76195   0.14845   0.42057   0.00000  Uiso   1.00
O1803  O     0.76555   0.14788   0.67200   0.00000  Uiso   1.00
O1804  O     0.76388   0.14588   0.92293   0.00000  Uiso   1.00
O1805  O     0.98562   0.31564   0.29516   0.00000  Uiso   1.00
O1806  O     0.98747   0.31997   0.04318   0.00000  Uiso   1.00
O1807  O     0.98776   0.31811   0.79473   0.00000  Uiso   1.00
O1808  O     0.98868   0.30983   0.54565   0.00000  Uiso   1.00
O1809  O     0.75843   0.48384   0.42258   0.00000  Uiso   1.00
O1810  O     0.76314   0.48918   0.17202   0.00000  Uiso   1.00
O1811  O     0.76320   0.48618   0.92421   0.00000  Uiso   1.00
O1812  O     0.76078   0.48555   0.67236   0.00000  Uiso   1.00
O1813  O     0.98866   0.65084   0.29548   0.00000  Uiso   1.00
O1814  O     0.99011   0.65029   0.04435   0.00000  Uiso   1.00
O1815  O     0.98924   0.65477   0.79422   0.00000  Uiso   1.00
O1816  O     0.99164   0.65300   0.54458   0.00000  Uiso   1.00
O1817  O     0.75648   0.81874   0.42113   0.00000  Uiso   1.00
O1818  O     0.99499   0.98388   0.29270   0.00000  Uiso   1.00
O1819  O     0.99320   0.98824   0.03991   0.00000  Uiso   1.00
O1820  O     0.75975   0.81879   0.16959   0.00000  Uiso   1.00
O1821  O     0.99310   0.98539   0.54399   0.00000  Uiso   1.00
O1822  O     0.76100   0.81703   0.67338   0.00000  Uiso   1.00
O1823  O     0.76093   0.82046   0.91985   0.00000  Uiso   1.00
O1824  O     0.99293   0.99090   0.79455   0.00000  Uiso   1.00
