data_final_Cl-Zn-SABVOH01
_audit_creation_date              2022-12-15
_audit_creation_method            'Materials Studio'
_symmetry_space_group_name_H-M    'P1'
_symmetry_Int_Tables_number       1
_symmetry_cell_setting            triclinic
loop_
_symmetry_equiv_pos_as_xyz
  x,y,z
_cell_length_a                    34.0802
_cell_length_b                    36.8316
_cell_length_c                    26.3703
_cell_angle_alpha                 90.0000
_cell_angle_beta                  90.0000
_cell_angle_gamma                 90.0000
loop_
_atom_site_label
_atom_site_type_symbol
_atom_site_fract_x
_atom_site_fract_y
_atom_site_fract_z
_atom_site_U_iso_or_equiv
_atom_site_adp_type
_atom_site_occupancy
Zn1    Zn    0.24039   0.17801   0.02892   0.00000  Uiso   1.00
Zn2    Zn    0.24127   0.17260   0.15172   0.00000  Uiso   1.00
Zn3    Zn    0.24169   0.17388   0.40652   0.00000  Uiso   1.00
Zn4    Zn    0.24439   0.17492   0.27878   0.00000  Uiso   1.00
Zn5    Zn    0.24256   0.17215   0.53001   0.00000  Uiso   1.00
Zn6    Zn    0.24009   0.17090   0.90625   0.00000  Uiso   1.00
Zn7    Zn    0.24380   0.16982   0.77910   0.00000  Uiso   1.00
Zn8    Zn    0.24588   0.17224   0.65555   0.00000  Uiso   1.00
Zn9    Zn    0.24170   0.50428   0.02781   0.00000  Uiso   1.00
Zn10   Zn    0.24270   0.50528   0.15105   0.00000  Uiso   1.00
Zn11   Zn    0.24292   0.50442   0.27651   0.00000  Uiso   1.00
Zn12   Zn    0.24242   0.50560   0.39784   0.00000  Uiso   1.00
Zn13   Zn    0.24149   0.50750   0.52455   0.00000  Uiso   1.00
Zn14   Zn    0.24155   0.50438   0.77747   0.00000  Uiso   1.00
Zn15   Zn    0.24463   0.50536   0.90270   0.00000  Uiso   1.00
Zn16   Zn    0.24568   0.50581   0.64921   0.00000  Uiso   1.00
Zn17   Zn    0.24194   0.84089   0.02426   0.00000  Uiso   1.00
Zn18   Zn    0.24425   0.84203   0.14564   0.00000  Uiso   1.00
Zn19   Zn    0.24585   0.84062   0.26967   0.00000  Uiso   1.00
Zn20   Zn    0.24245   0.84015   0.39579   0.00000  Uiso   1.00
Zn21   Zn    0.24044   0.84031   0.64713   0.00000  Uiso   1.00
Zn22   Zn    0.24090   0.84068   0.77287   0.00000  Uiso   1.00
Zn23   Zn    0.24118   0.83625   0.89998   0.00000  Uiso   1.00
Zn24   Zn    0.24441   0.84210   0.51953   0.00000  Uiso   1.00
Zn25   Zn    0.49320   0.00681   0.40068   0.00000  Uiso   1.00
Zn26   Zn    0.49040   0.00340   0.02666   0.00000  Uiso   1.00
Zn27   Zn    0.49283   0.00856   0.14937   0.00000  Uiso   1.00
Zn28   Zn    0.49147   0.00953   0.27622   0.00000  Uiso   1.00
Zn29   Zn    0.49233   0.00512   0.89789   0.00000  Uiso   1.00
Zn30   Zn    0.49175   0.00607   0.52508   0.00000  Uiso   1.00
Zn31   Zn    0.49287   0.00399   0.64884   0.00000  Uiso   1.00
Zn32   Zn    0.49261   0.00567   0.77581   0.00000  Uiso   1.00
Zn33   Zn    0.49080   0.33869   0.16045   0.00000  Uiso   1.00
Zn34   Zn    0.49095   0.34377   0.40769   0.00000  Uiso   1.00
Zn35   Zn    0.48769   0.34168   0.28431   0.00000  Uiso   1.00
Zn36   Zn    0.49350   0.33700   0.03747   0.00000  Uiso   1.00
Zn37   Zn    0.49599   0.34266   0.53400   0.00000  Uiso   1.00
Zn38   Zn    0.49241   0.34012   0.65874   0.00000  Uiso   1.00
Zn39   Zn    0.49165   0.33519   0.78397   0.00000  Uiso   1.00
Zn40   Zn    0.49109   0.33501   0.91184   0.00000  Uiso   1.00
Zn41   Zn    0.49186   0.66989   0.15313   0.00000  Uiso   1.00
Zn42   Zn    0.49291   0.66841   0.27662   0.00000  Uiso   1.00
Zn43   Zn    0.49389   0.67233   0.40407   0.00000  Uiso   1.00
Zn44   Zn    0.49179   0.67427   0.02652   0.00000  Uiso   1.00
Zn45   Zn    0.49242   0.67160   0.52838   0.00000  Uiso   1.00
Zn46   Zn    0.49221   0.67317   0.77495   0.00000  Uiso   1.00
Zn47   Zn    0.49294   0.67443   0.90086   0.00000  Uiso   1.00
Zn48   Zn    0.49154   0.67044   0.65133   0.00000  Uiso   1.00
Zn49   Zn    0.74060   0.17568   0.02170   0.00000  Uiso   1.00
Zn50   Zn    0.74280   0.17205   0.14587   0.00000  Uiso   1.00
Zn51   Zn    0.74292   0.17712   0.26943   0.00000  Uiso   1.00
Zn52   Zn    0.73963   0.17267   0.39575   0.00000  Uiso   1.00
Zn53   Zn    0.74569   0.17290   0.64237   0.00000  Uiso   1.00
Zn54   Zn    0.74279   0.17190   0.76831   0.00000  Uiso   1.00
Zn55   Zn    0.74074   0.16701   0.89493   0.00000  Uiso   1.00
Zn56   Zn    0.74276   0.17462   0.52002   0.00000  Uiso   1.00
Zn57   Zn    0.74331   0.50568   0.27676   0.00000  Uiso   1.00
Zn58   Zn    0.74026   0.50792   0.15462   0.00000  Uiso   1.00
Zn59   Zn    0.74327   0.50684   0.03261   0.00000  Uiso   1.00
Zn60   Zn    0.74572   0.50676   0.40405   0.00000  Uiso   1.00
Zn61   Zn    0.73999   0.50539   0.65364   0.00000  Uiso   1.00
Zn62   Zn    0.74092   0.50492   0.77802   0.00000  Uiso   1.00
Zn63   Zn    0.74378   0.50813   0.90684   0.00000  Uiso   1.00
Zn64   Zn    0.74234   0.50582   0.52845   0.00000  Uiso   1.00
Zn65   Zn    0.73997   0.84367   0.02544   0.00000  Uiso   1.00
Zn66   Zn    0.73876   0.83721   0.15165   0.00000  Uiso   1.00
Zn67   Zn    0.73978   0.84167   0.27519   0.00000  Uiso   1.00
Zn68   Zn    0.74156   0.84109   0.40227   0.00000  Uiso   1.00
Zn69   Zn    0.74504   0.84171   0.52520   0.00000  Uiso   1.00
Zn70   Zn    0.74353   0.84016   0.65090   0.00000  Uiso   1.00
Zn71   Zn    0.74289   0.84216   0.77434   0.00000  Uiso   1.00
Zn72   Zn    0.74089   0.84330   0.89701   0.00000  Uiso   1.00
Zn73   Zn    0.99123   0.00202   0.02835   0.00000  Uiso   1.00
Zn74   Zn    0.98949   0.00118   0.15628   0.00000  Uiso   1.00
Zn75   Zn    0.99170   0.00599   0.27814   0.00000  Uiso   1.00
Zn76   Zn    0.99285   0.00341   0.40648   0.00000  Uiso   1.00
Zn77   Zn    0.99312   0.00528   0.77834   0.00000  Uiso   1.00
Zn78   Zn    0.99426   0.00557   0.53174   0.00000  Uiso   1.00
Zn79   Zn    0.99294   0.00482   0.90285   0.00000  Uiso   1.00
Zn80   Zn    0.99633   0.00413   0.65419   0.00000  Uiso   1.00
Zn81   Zn    0.99217   0.33933   0.02546   0.00000  Uiso   1.00
Zn82   Zn    0.98923   0.34482   0.15042   0.00000  Uiso   1.00
Zn83   Zn    0.99027   0.33913   0.27505   0.00000  Uiso   1.00
Zn84   Zn    0.99465   0.33901   0.39961   0.00000  Uiso   1.00
Zn85   Zn    0.99386   0.34120   0.65231   0.00000  Uiso   1.00
Zn86   Zn    0.99462   0.33983   0.77620   0.00000  Uiso   1.00
Zn87   Zn    0.99215   0.34115   0.89880   0.00000  Uiso   1.00
Zn88   Zn    0.99668   0.33625   0.52748   0.00000  Uiso   1.00
Zn89   Zn    0.99258   0.67414   0.15319   0.00000  Uiso   1.00
Zn90   Zn    0.98983   0.67621   0.27827   0.00000  Uiso   1.00
Zn91   Zn    0.99224   0.67170   0.40386   0.00000  Uiso   1.00
Zn92   Zn    0.98995   0.67202   0.02903   0.00000  Uiso   1.00
Zn93   Zn    0.99367   0.67318   0.52940   0.00000  Uiso   1.00
Zn94   Zn    0.99093   0.67625   0.65474   0.00000  Uiso   1.00
Zn95   Zn    0.99238   0.67345   0.77755   0.00000  Uiso   1.00
Zn96   Zn    0.99139   0.67323   0.90355   0.00000  Uiso   1.00
Cl97   Cl    0.11746   0.15566   0.29374   0.00000  Uiso   1.00
Cl98   Cl    0.05583   0.10508   0.38186   0.00000  Uiso   1.00
Cl99   Cl    0.10844   0.02191   0.14651   0.00000  Uiso   1.00
Cl100  Cl    0.17255   0.08066   0.05880   0.00000  Uiso   1.00
Cl101  Cl    0.12668   0.18872   0.51410   0.00000  Uiso   1.00
Cl102  Cl    0.18415   0.06085   0.54404   0.00000  Uiso   1.00
Cl103  Cl    0.17530   0.07930   0.81655   0.00000  Uiso   1.00
Cl104  Cl    0.05502   0.10305   0.87501   0.00000  Uiso   1.00
Cl105  Cl    0.11632   0.18564   0.75516   0.00000  Uiso   1.00
Cl106  Cl    0.05961   0.10426   0.62526   0.00000  Uiso   1.00
Cl107  Cl    0.04934   0.23186   0.18114   0.00000  Uiso   1.00
Cl108  Cl    0.04807   0.23287   0.41624   0.00000  Uiso   1.00
Cl109  Cl    0.18032   0.27582   0.25983   0.00000  Uiso   1.00
Cl110  Cl    0.17635   0.27992   0.01986   0.00000  Uiso   1.00
Cl111  Cl    0.18351   0.39527   0.27792   0.00000  Uiso   1.00
Cl112  Cl    0.10301   0.30437   0.69552   0.00000  Uiso   1.00
Cl113  Cl    0.10605   0.31336   0.91340   0.00000  Uiso   1.00
Cl114  Cl    0.05561   0.43847   0.36980   0.00000  Uiso   1.00
Cl115  Cl    0.04360   0.45866   0.15274   0.00000  Uiso   1.00
Cl116  Cl    0.14452   0.55863   0.23222   0.00000  Uiso   1.00
Cl117  Cl    0.11409   0.51695   0.02414   0.00000  Uiso   1.00
Cl118  Cl    0.18194   0.40015   0.04323   0.00000  Uiso   1.00
Cl119  Cl    0.12303   0.52629   0.76027   0.00000  Uiso   1.00
Cl120  Cl    0.05627   0.44210   0.62184   0.00000  Uiso   1.00
Cl121  Cl    0.17214   0.41741   0.55850   0.00000  Uiso   1.00
Cl122  Cl    0.17756   0.40258   0.79797   0.00000  Uiso   1.00
Cl123  Cl    0.05589   0.44016   0.87512   0.00000  Uiso   1.00
Cl124  Cl    0.11449   0.52138   0.51083   0.00000  Uiso   1.00
Cl125  Cl    0.16689   0.75222   0.06353   0.00000  Uiso   1.00
Cl126  Cl    0.16882   0.74971   0.29835   0.00000  Uiso   1.00
Cl127  Cl    0.11382   0.65951   0.15914   0.00000  Uiso   1.00
Cl128  Cl    0.05311   0.78306   0.12102   0.00000  Uiso   1.00
Cl129  Cl    0.09200   0.61868   0.44372   0.00000  Uiso   1.00
Cl130  Cl    0.05325   0.78056   0.37447   0.00000  Uiso   1.00
Cl131  Cl    0.17501   0.75097   0.55365   0.00000  Uiso   1.00
Cl132  Cl    0.05746   0.76853   0.87088   0.00000  Uiso   1.00
Cl133  Cl    0.17578   0.73765   0.78515   0.00000  Uiso   1.00
Cl134  Cl    0.10413   0.64342   0.93498   0.00000  Uiso   1.00
Cl135  Cl    0.04225   0.78389   0.63797   0.00000  Uiso   1.00
Cl136  Cl    0.10086   0.63199   0.69414   0.00000  Uiso   1.00
Cl137  Cl    0.17059   0.93515   0.24808   0.00000  Uiso   1.00
Cl138  Cl    0.05275   0.90083   0.18149   0.00000  Uiso   1.00
Cl139  Cl    0.05515   0.89643   0.42841   0.00000  Uiso   1.00
Cl140  Cl    0.18166   0.94616   0.76224   0.00000  Uiso   1.00
Cl141  Cl    0.05120   0.88791   0.67722   0.00000  Uiso   1.00
Cl142  Cl    0.04992   0.89514   0.91818   0.00000  Uiso   1.00
Cl143  Cl    0.16981   0.93605   0.50319   0.00000  Uiso   1.00
Cl144  Cl    0.15768   0.92359   0.98431   0.00000  Uiso   1.00
Cl145  Cl    0.43278   0.10869   0.04518   0.00000  Uiso   1.00
Cl146  Cl    0.35837   0.15567   0.13274   0.00000  Uiso   1.00
Cl147  Cl    0.30690   0.07730   0.37041   0.00000  Uiso   1.00
Cl148  Cl    0.36513   0.02132   0.27860   0.00000  Uiso   1.00
Cl149  Cl    0.29542   0.06016   0.64442   0.00000  Uiso   1.00
Cl150  Cl    0.42212   0.09530   0.55919   0.00000  Uiso   1.00
Cl151  Cl    0.29032   0.06643   0.89730   0.00000  Uiso   1.00
Cl152  Cl    0.43287   0.11012   0.79272   0.00000  Uiso   1.00
Cl153  Cl    0.36298   0.00762   0.54772   0.00000  Uiso   1.00
Cl154  Cl    0.30953   0.27289   0.19331   0.00000  Uiso   1.00
Cl155  Cl    0.43282   0.23896   0.27405   0.00000  Uiso   1.00
Cl156  Cl    0.30108   0.28477   0.43103   0.00000  Uiso   1.00
Cl157  Cl    0.42178   0.25051   0.49005   0.00000  Uiso   1.00
Cl158  Cl    0.31817   0.26292   0.69246   0.00000  Uiso   1.00
Cl159  Cl    0.42823   0.23074   0.77666   0.00000  Uiso   1.00
Cl160  Cl    0.29023   0.28320   0.91890   0.00000  Uiso   1.00
Cl161  Cl    0.40903   0.25512   0.99716   0.00000  Uiso   1.00
Cl162  Cl    0.36817   0.35219   0.53984   0.00000  Uiso   1.00
Cl163  Cl    0.30497   0.39965   0.63646   0.00000  Uiso   1.00
Cl164  Cl    0.29938   0.40099   0.12580   0.00000  Uiso   1.00
Cl165  Cl    0.36257   0.49118   0.38809   0.00000  Uiso   1.00
Cl166  Cl    0.42843   0.56236   0.26031   0.00000  Uiso   1.00
Cl167  Cl    0.42010   0.42953   0.07076   0.00000  Uiso   1.00
Cl168  Cl    0.42653   0.43981   0.29513   0.00000  Uiso   1.00
Cl169  Cl    0.41822   0.58443   0.74481   0.00000  Uiso   1.00
Cl170  Cl    0.41127   0.58924   0.98695   0.00000  Uiso   1.00
Cl171  Cl    0.42087   0.42816   0.81860   0.00000  Uiso   1.00
Cl172  Cl    0.31067   0.40481   0.87911   0.00000  Uiso   1.00
Cl173  Cl    0.42143   0.57373   0.50351   0.00000  Uiso   1.00
Cl174  Cl    0.42399   0.78103   0.04425   0.00000  Uiso   1.00
Cl175  Cl    0.30563   0.60502   0.42993   0.00000  Uiso   1.00
Cl176  Cl    0.30856   0.60397   0.18652   0.00000  Uiso   1.00
Cl177  Cl    0.40555   0.74633   0.31125   0.00000  Uiso   1.00
Cl178  Cl    0.31161   0.74507   0.10932   0.00000  Uiso   1.00
Cl179  Cl    0.30331   0.73173   0.37752   0.00000  Uiso   1.00
Cl180  Cl    0.42902   0.77448   0.54673   0.00000  Uiso   1.00
Cl181  Cl    0.41216   0.75489   0.80821   0.00000  Uiso   1.00
Cl182  Cl    0.29854   0.61438   0.92480   0.00000  Uiso   1.00
Cl183  Cl    0.30930   0.74786   0.60860   0.00000  Uiso   1.00
Cl184  Cl    0.30157   0.72808   0.88283   0.00000  Uiso   1.00
Cl185  Cl    0.30353   0.61077   0.67802   0.00000  Uiso   1.00
Cl186  Cl    0.29894   0.94682   0.17956   0.00000  Uiso   1.00
Cl187  Cl    0.42300   0.90913   0.25038   0.00000  Uiso   1.00
Cl188  Cl    0.30315   0.94065   0.42908   0.00000  Uiso   1.00
Cl189  Cl    0.41934   0.90821   0.00506   0.00000  Uiso   1.00
Cl190  Cl    0.36217   0.84844   0.63774   0.00000  Uiso   1.00
Cl191  Cl    0.31125   0.93380   0.94130   0.00000  Uiso   1.00
Cl192  Cl    0.40466   0.93035   0.73488   0.00000  Uiso   1.00
Cl193  Cl    0.54901   0.11246   0.12070   0.00000  Uiso   1.00
Cl194  Cl    0.67018   0.08481   0.29220   0.00000  Uiso   1.00
Cl195  Cl    0.55286   0.11005   0.37855   0.00000  Uiso   1.00
Cl196  Cl    0.67497   0.07092   0.05009   0.00000  Uiso   1.00
Cl197  Cl    0.62666   0.14224   0.60906   0.00000  Uiso   1.00
Cl198  Cl    0.55528   0.10238   0.87448   0.00000  Uiso   1.00
Cl199  Cl    0.60682   0.04190   0.79624   0.00000  Uiso   1.00
Cl200  Cl    0.67769   0.07099   0.54820   0.00000  Uiso   1.00
Cl201  Cl    0.60125   0.29869   0.19181   0.00000  Uiso   1.00
Cl202  Cl    0.54294   0.23350   0.26865   0.00000  Uiso   1.00
Cl203  Cl    0.67969   0.27629   0.41781   0.00000  Uiso   1.00
Cl204  Cl    0.63129   0.20912   0.49207   0.00000  Uiso   1.00
Cl205  Cl    0.61048   0.31111   0.68594   0.00000  Uiso   1.00
Cl206  Cl    0.54542   0.23035   0.76305   0.00000  Uiso   1.00
Cl207  Cl    0.68359   0.26293   0.91295   0.00000  Uiso   1.00
Cl208  Cl    0.61890   0.20319   0.99650   0.00000  Uiso   1.00
Cl209  Cl    0.54113   0.55782   0.16574   0.00000  Uiso   1.00
Cl210  Cl    0.66229   0.42505   0.31972   0.00000  Uiso   1.00
Cl211  Cl    0.55475   0.56480   0.43059   0.00000  Uiso   1.00
Cl212  Cl    0.55453   0.43594   0.12370   0.00000  Uiso   1.00
Cl213  Cl    0.54538   0.45085   0.39046   0.00000  Uiso   1.00
Cl214  Cl    0.68134   0.40027   0.04653   0.00000  Uiso   1.00
Cl215  Cl    0.66180   0.58528   0.23953   0.00000  Uiso   1.00
Cl216  Cl    0.56264   0.57986   0.94073   0.00000  Uiso   1.00
Cl217  Cl    0.67748   0.41520   0.80984   0.00000  Uiso   1.00
Cl218  Cl    0.55418   0.44431   0.63701   0.00000  Uiso   1.00
Cl219  Cl    0.55003   0.44549   0.88838   0.00000  Uiso   1.00
Cl220  Cl    0.55749   0.57615   0.68790   0.00000  Uiso   1.00
Cl221  Cl    0.67491   0.41129   0.55096   0.00000  Uiso   1.00
Cl222  Cl    0.67423   0.59624   0.74991   0.00000  Uiso   1.00
Cl223  Cl    0.66882   0.75650   0.05537   0.00000  Uiso   1.00
Cl224  Cl    0.65901   0.75738   0.31626   0.00000  Uiso   1.00
Cl225  Cl    0.55128   0.78006   0.38743   0.00000  Uiso   1.00
Cl226  Cl    0.67555   0.60348   0.01089   0.00000  Uiso   1.00
Cl227  Cl    0.55019   0.77597   0.12410   0.00000  Uiso   1.00
Cl228  Cl    0.67926   0.74572   0.55375   0.00000  Uiso   1.00
Cl229  Cl    0.55975   0.76400   0.61159   0.00000  Uiso   1.00
Cl230  Cl    0.67229   0.75249   0.80292   0.00000  Uiso   1.00
Cl231  Cl    0.54481   0.78203   0.87612   0.00000  Uiso   1.00
Cl232  Cl    0.67456   0.60059   0.50162   0.00000  Uiso   1.00
Cl233  Cl    0.67682   0.93689   0.25315   0.00000  Uiso   1.00
Cl234  Cl    0.55044   0.91023   0.43078   0.00000  Uiso   1.00
Cl235  Cl    0.67119   0.93458   0.00438   0.00000  Uiso   1.00
Cl236  Cl    0.54996   0.89835   0.18102   0.00000  Uiso   1.00
Cl237  Cl    0.67603   0.93274   0.49641   0.00000  Uiso   1.00
Cl238  Cl    0.66501   0.92453   0.74252   0.00000  Uiso   1.00
Cl239  Cl    0.55595   0.89802   0.67331   0.00000  Uiso   1.00
Cl240  Cl    0.55263   0.90455   0.92899   0.00000  Uiso   1.00
Cl241  Cl    0.92644   0.10604   0.29832   0.00000  Uiso   1.00
Cl242  Cl    0.79474   0.05942   0.14178   0.00000  Uiso   1.00
Cl243  Cl    0.80967   0.07542   0.36710   0.00000  Uiso   1.00
Cl244  Cl    0.92146   0.09943   0.04759   0.00000  Uiso   1.00
Cl245  Cl    0.92247   0.09868   0.80237   0.00000  Uiso   1.00
Cl246  Cl    0.81125   0.06638   0.61506   0.00000  Uiso   1.00
Cl247  Cl    0.92391   0.10226   0.55341   0.00000  Uiso   1.00
Cl248  Cl    0.79537   0.06142   0.87819   0.00000  Uiso   1.00
Cl249  Cl    0.79924   0.27629   0.17655   0.00000  Uiso   1.00
Cl250  Cl    0.92944   0.23484   0.26713   0.00000  Uiso   1.00
Cl251  Cl    0.79552   0.28673   0.41702   0.00000  Uiso   1.00
Cl252  Cl    0.86936   0.34857   0.27597   0.00000  Uiso   1.00
Cl253  Cl    0.92462   0.23982   0.49986   0.00000  Uiso   1.00
Cl254  Cl    0.80231   0.27341   0.67393   0.00000  Uiso   1.00
Cl255  Cl    0.91829   0.24742   0.74835   0.00000  Uiso   1.00
Cl256  Cl    0.79662   0.28005   0.92527   0.00000  Uiso   1.00
Cl257  Cl    0.91520   0.25528   0.98991   0.00000  Uiso   1.00
Cl258  Cl    0.86112   0.49369   0.15067   0.00000  Uiso   1.00
Cl259  Cl    0.91999   0.58026   0.49800   0.00000  Uiso   1.00
Cl260  Cl    0.91358   0.59145   0.24458   0.00000  Uiso   1.00
Cl261  Cl    0.80407   0.40341   0.37906   0.00000  Uiso   1.00
Cl262  Cl    0.93462   0.44395   0.04813   0.00000  Uiso   1.00
Cl263  Cl    0.92149   0.58035   0.74929   0.00000  Uiso   1.00
Cl264  Cl    0.91982   0.43412   0.80970   0.00000  Uiso   1.00
Cl265  Cl    0.80849   0.41099   0.62417   0.00000  Uiso   1.00
Cl266  Cl    0.92807   0.42977   0.55585   0.00000  Uiso   1.00
Cl267  Cl    0.80432   0.40193   0.88386   0.00000  Uiso   1.00
Cl268  Cl    0.91975   0.57953   0.99828   0.00000  Uiso   1.00
Cl269  Cl    0.81246   0.59752   0.94101   0.00000  Uiso   1.00
Cl270  Cl    0.80440   0.61015   0.43353   0.00000  Uiso   1.00
Cl271  Cl    0.80793   0.61078   0.18414   0.00000  Uiso   1.00
Cl272  Cl    0.92037   0.76703   0.04729   0.00000  Uiso   1.00
Cl273  Cl    0.80188   0.73196   0.37748   0.00000  Uiso   1.00
Cl274  Cl    0.91486   0.76653   0.31030   0.00000  Uiso   1.00
Cl275  Cl    0.80209   0.73729   0.12846   0.00000  Uiso   1.00
Cl276  Cl    0.92057   0.76175   0.55681   0.00000  Uiso   1.00
Cl277  Cl    0.79509   0.73607   0.87284   0.00000  Uiso   1.00
Cl278  Cl    0.91797   0.76015   0.81148   0.00000  Uiso   1.00
Cl279  Cl    0.80049   0.73796   0.62802   0.00000  Uiso   1.00
Cl280  Cl    0.80104   0.61551   0.67770   0.00000  Uiso   1.00
Cl281  Cl    0.80296   0.93870   0.17627   0.00000  Uiso   1.00
Cl282  Cl    0.92146   0.90764   0.25462   0.00000  Uiso   1.00
Cl283  Cl    0.80166   0.94349   0.43093   0.00000  Uiso   1.00
Cl284  Cl    0.93045   0.89340   0.01206   0.00000  Uiso   1.00
Cl285  Cl    0.91573   0.91929   0.49999   0.00000  Uiso   1.00
Cl286  Cl    0.79296   0.94852   0.67769   0.00000  Uiso   1.00
Cl287  Cl    0.80358   0.95108   0.92467   0.00000  Uiso   1.00
Cl288  Cl    0.92025   0.91322   0.74406   0.00000  Uiso   1.00
H289   H     0.09555   0.04819   0.03701   0.00000  Uiso   1.00
H290   H     0.23325   0.13197   0.08676   0.00000  Uiso   1.00
H291   H     0.17044   0.06517   0.17033   0.00000  Uiso   1.00
H292   H     0.05849   0.10785   0.26965   0.00000  Uiso   1.00
H293   H     0.13715   0.13079   0.39873   0.00000  Uiso   1.00
H294   H     0.24668   0.12802   0.34093   0.00000  Uiso   1.00
H295   H     0.00206   0.05268   0.34595   0.00000  Uiso   1.00
H296   H     0.13823   0.12918   0.65023   0.00000  Uiso   1.00
H297   H     0.10123   0.04820   0.79175   0.00000  Uiso   1.00
H298   H     0.13036   0.13298   0.89817   0.00000  Uiso   1.00
H299   H     0.23858   0.12641   0.84290   0.00000  Uiso   1.00
H300   H     0.10637   0.03703   0.52991   0.00000  Uiso   1.00
H301   H     0.23677   0.13058   0.59521   0.00000  Uiso   1.00
H302   H     0.12717   0.20377   0.40091   0.00000  Uiso   1.00
H303   H     0.10779   0.37073   0.26781   0.00000  Uiso   1.00
H304   H     0.09502   0.29985   0.02767   0.00000  Uiso   1.00
H305   H     0.10135   0.29729   0.27232   0.00000  Uiso   1.00
H306   H     0.23110   0.21904   0.46793   0.00000  Uiso   1.00
H307   H     0.12796   0.20671   0.15886   0.00000  Uiso   1.00
H308   H     0.10422   0.38189   0.03565   0.00000  Uiso   1.00
H309   H     0.23611   0.21804   0.22121   0.00000  Uiso   1.00
H310   H     0.06552   0.24199   0.53418   0.00000  Uiso   1.00
H311   H     0.16260   0.25573   0.67274   0.00000  Uiso   1.00
H312   H     0.05912   0.23819   0.77198   0.00000  Uiso   1.00
H313   H     0.22843   0.21306   0.72298   0.00000  Uiso   1.00
H314   H     0.16064   0.26008   0.89814   0.00000  Uiso   1.00
H315   H     0.10267   0.38396   0.78070   0.00000  Uiso   1.00
H316   H     0.23277   0.21998   0.95956   0.00000  Uiso   1.00
H317   H     0.09485   0.39310   0.54303   0.00000  Uiso   1.00
H318   H     0.24187   0.54789   0.21723   0.00000  Uiso   1.00
H319   H     0.11881   0.48245   0.16203   0.00000  Uiso   1.00
H320   H     0.23765   0.46123   0.33645   0.00000  Uiso   1.00
H321   H     0.05379   0.56709   0.04572   0.00000  Uiso   1.00
H322   H     0.13060   0.46673   0.39148   0.00000  Uiso   1.00
H323   H     0.07830   0.59639   0.25852   0.00000  Uiso   1.00
H324   H     0.15114   0.57232   0.41525   0.00000  Uiso   1.00
H325   H     0.23023   0.46335   0.08890   0.00000  Uiso   1.00
H326   H     0.22665   0.54637   0.46085   0.00000  Uiso   1.00
H327   H     0.12921   0.46897   0.64257   0.00000  Uiso   1.00
H328   H     0.23946   0.46005   0.58684   0.00000  Uiso   1.00
H329   H     0.15937   0.58648   0.66733   0.00000  Uiso   1.00
H330   H     0.13034   0.46649   0.89547   0.00000  Uiso   1.00
H331   H     0.16118   0.59131   0.91824   0.00000  Uiso   1.00
H332   H     0.23562   0.55093   0.96320   0.00000  Uiso   1.00
H333   H     0.23667   0.55221   0.71100   0.00000  Uiso   1.00
H334   H     0.05886   0.57121   0.53487   0.00000  Uiso   1.00
H335   H     0.06446   0.57911   0.77573   0.00000  Uiso   1.00
H336   H     0.23555   0.46178   0.83928   0.00000  Uiso   1.00
H337   H     0.23539   0.79920   0.08382   0.00000  Uiso   1.00
H338   H     0.09308   0.72548   0.04276   0.00000  Uiso   1.00
H339   H     0.08959   0.73236   0.28515   0.00000  Uiso   1.00
H340   H     0.24220   0.79396   0.33292   0.00000  Uiso   1.00
H341   H     0.17338   0.60897   0.13897   0.00000  Uiso   1.00
H342   H     0.09554   0.72846   0.54179   0.00000  Uiso   1.00
H343   H     0.09556   0.71842   0.78086   0.00000  Uiso   1.00
H344   H     0.23310   0.79470   0.83575   0.00000  Uiso   1.00
H345   H     0.23527   0.88429   0.20827   0.00000  Uiso   1.00
H346   H     0.12866   0.86993   0.15736   0.00000  Uiso   1.00
H347   H     0.09499   0.95825   0.27111   0.00000  Uiso   1.00
H348   H     0.13082   0.87502   0.40309   0.00000  Uiso   1.00
H349   H     0.08755   0.94841   0.01479   0.00000  Uiso   1.00
H350   H     0.23145   0.88346   0.45128   0.00000  Uiso   1.00
H351   H     0.13258   0.80197   0.13594   0.00000  Uiso   1.00
H352   H     0.12762   0.80707   0.39549   0.00000  Uiso   1.00
H353   H     0.13082   0.87158   0.65985   0.00000  Uiso   1.00
H354   H     0.23784   0.88321   0.95762   0.00000  Uiso   1.00
H355   H     0.11007   0.97361   0.78759   0.00000  Uiso   1.00
H356   H     0.12307   0.86450   0.89575   0.00000  Uiso   1.00
H357   H     0.09068   0.95361   0.51872   0.00000  Uiso   1.00
H358   H     0.22745   0.88191   0.70997   0.00000  Uiso   1.00
H359   H     0.12003   0.81185   0.64633   0.00000  Uiso   1.00
H360   H     0.22762   0.80090   0.58329   0.00000  Uiso   1.00
H361   H     0.12933   0.80090   0.89499   0.00000  Uiso   1.00
H362   H     0.48454   0.05465   0.33615   0.00000  Uiso   1.00
H363   H     0.35219   0.13652   0.03509   0.00000  Uiso   1.00
H364   H     0.41920   0.10501   0.15190   0.00000  Uiso   1.00
H365   H     0.38247   0.05406   0.38525   0.00000  Uiso   1.00
H366   H     0.30612   0.07210   0.26153   0.00000  Uiso   1.00
H367   H     0.48523   0.05315   0.08286   0.00000  Uiso   1.00
H368   H     0.49087   0.05098   0.58738   0.00000  Uiso   1.00
H369   H     0.37686   0.03673   0.65518   0.00000  Uiso   1.00
H370   H     0.34900   0.12445   0.53686   0.00000  Uiso   1.00
H371   H     0.36875   0.03720   0.91098   0.00000  Uiso   1.00
H372   H     0.35531   0.12918   0.78419   0.00000  Uiso   1.00
H373   H     0.48934   0.05061   0.83695   0.00000  Uiso   1.00
H374   H     0.34262   0.22399   0.02326   0.00000  Uiso   1.00
H375   H     0.49954   0.29725   0.46795   0.00000  Uiso   1.00
H376   H     0.47528   0.29540   0.22109   0.00000  Uiso   1.00
H377   H     0.37918   0.30110   0.16915   0.00000  Uiso   1.00
H378   H     0.37733   0.30297   0.41657   0.00000  Uiso   1.00
H379   H     0.47251   0.38533   0.34051   0.00000  Uiso   1.00
H380   H     0.35719   0.20861   0.29129   0.00000  Uiso   1.00
H381   H     0.37259   0.37052   0.14906   0.00000  Uiso   1.00
H382   H     0.39003   0.29596   0.66110   0.00000  Uiso   1.00
H383   H     0.38436   0.37555   0.90292   0.00000  Uiso   1.00
H384   H     0.36776   0.31179   0.90390   0.00000  Uiso   1.00
H385   H     0.48636   0.29236   0.97575   0.00000  Uiso   1.00
H386   H     0.38354   0.37685   0.65317   0.00000  Uiso   1.00
H387   H     0.35106   0.21546   0.51774   0.00000  Uiso   1.00
H388   H     0.48368   0.38694   0.59791   0.00000  Uiso   1.00
H389   H     0.47399   0.29563   0.71588   0.00000  Uiso   1.00
H390   H     0.47563   0.37619   0.85008   0.00000  Uiso   1.00
H391   H     0.34898   0.21368   0.77785   0.00000  Uiso   1.00
H392   H     0.34904   0.46346   0.28070   0.00000  Uiso   1.00
H393   H     0.34935   0.54818   0.27046   0.00000  Uiso   1.00
H394   H     0.34972   0.46273   0.03981   0.00000  Uiso   1.00
H395   H     0.34301   0.55749   0.01210   0.00000  Uiso   1.00
H396   H     0.42431   0.44565   0.41946   0.00000  Uiso   1.00
H397   H     0.30993   0.40798   0.52109   0.00000  Uiso   1.00
H398   H     0.34632   0.55943   0.76487   0.00000  Uiso   1.00
H399   H     0.34802   0.46409   0.79235   0.00000  Uiso   1.00
H400   H     0.34725   0.54672   0.52156   0.00000  Uiso   1.00
H401   H     0.37708   0.63528   0.15913   0.00000  Uiso   1.00
H402   H     0.49292   0.62396   0.21293   0.00000  Uiso   1.00
H403   H     0.47988   0.70936   0.33937   0.00000  Uiso   1.00
H404   H     0.38047   0.71116   0.13570   0.00000  Uiso   1.00
H405   H     0.37490   0.70185   0.40372   0.00000  Uiso   1.00
H406   H     0.34507   0.78455   0.28125   0.00000  Uiso   1.00
H407   H     0.38158   0.63209   0.40927   0.00000  Uiso   1.00
H408   H     0.49095   0.71619   0.09197   0.00000  Uiso   1.00
H409   H     0.49041   0.62310   0.47276   0.00000  Uiso   1.00
H410   H     0.35338   0.79749   0.52971   0.00000  Uiso   1.00
H411   H     0.48704   0.71799   0.83345   0.00000  Uiso   1.00
H412   H     0.37408   0.63947   0.91164   0.00000  Uiso   1.00
H413   H     0.38244   0.71517   0.63311   0.00000  Uiso   1.00
H414   H     0.38094   0.71055   0.89717   0.00000  Uiso   1.00
H415   H     0.49281   0.62356   0.71969   0.00000  Uiso   1.00
H416   H     0.37398   0.64378   0.65118   0.00000  Uiso   1.00
H417   H     0.48260   0.63139   0.96161   0.00000  Uiso   1.00
H418   H     0.48113   0.71776   0.58964   0.00000  Uiso   1.00
H419   H     0.33858   0.78279   0.78602   0.00000  Uiso   1.00
H420   H     0.34296   0.89082   0.01919   0.00000  Uiso   1.00
H421   H     0.37628   0.97260   0.16555   0.00000  Uiso   1.00
H422   H     0.48362   0.96098   0.46314   0.00000  Uiso   1.00
H423   H     0.37928   0.96716   0.40975   0.00000  Uiso   1.00
H424   H     0.34609   0.88981   0.26158   0.00000  Uiso   1.00
H425   H     0.49077   0.96188   0.21207   0.00000  Uiso   1.00
H426   H     0.34699   0.80055   0.02973   0.00000  Uiso   1.00
H427   H     0.48680   0.96017   0.95615   0.00000  Uiso   1.00
H428   H     0.42443   0.89784   0.61305   0.00000  Uiso   1.00
H429   H     0.29863   0.95654   0.56301   0.00000  Uiso   1.00
H430   H     0.37940   0.96689   0.91060   0.00000  Uiso   1.00
H431   H     0.33396   0.89851   0.76352   0.00000  Uiso   1.00
H432   H     0.48953   0.96048   0.71804   0.00000  Uiso   1.00
H433   H     0.62157   0.14378   0.14319   0.00000  Uiso   1.00
H434   H     0.59389   0.05849   0.27809   0.00000  Uiso   1.00
H435   H     0.63092   0.13721   0.39224   0.00000  Uiso   1.00
H436   H     0.59998   0.04313   0.03057   0.00000  Uiso   1.00
H437   H     0.73968   0.12558   0.33088   0.00000  Uiso   1.00
H438   H     0.74294   0.12930   0.08002   0.00000  Uiso   1.00
H439   H     0.60166   0.04414   0.52713   0.00000  Uiso   1.00
H440   H     0.66883   0.08732   0.76803   0.00000  Uiso   1.00
H441   H     0.56273   0.09665   0.63998   0.00000  Uiso   1.00
H442   H     0.62475   0.13352   0.89537   0.00000  Uiso   1.00
H443   H     0.73860   0.12898   0.58156   0.00000  Uiso   1.00
H444   H     0.74136   0.12377   0.82782   0.00000  Uiso   1.00
H445   H     0.55563   0.23824   0.04067   0.00000  Uiso   1.00
H446   H     0.66268   0.25921   0.15799   0.00000  Uiso   1.00
H447   H     0.72678   0.21831   0.46419   0.00000  Uiso   1.00
H448   H     0.60921   0.30533   0.40442   0.00000  Uiso   1.00
H449   H     0.58942   0.39633   0.29576   0.00000  Uiso   1.00
H450   H     0.73806   0.22049   0.20677   0.00000  Uiso   1.00
H451   H     0.62499   0.21490   0.26591   0.00000  Uiso   1.00
H452   H     0.60734   0.37334   0.02718   0.00000  Uiso   1.00
H453   H     0.50368   0.38538   0.09418   0.00000  Uiso   1.00
H454   H     0.66529   0.25917   0.66206   0.00000  Uiso   1.00
H455   H     0.60516   0.29177   0.90620   0.00000  Uiso   1.00
H456   H     0.56845   0.25173   0.52356   0.00000  Uiso   1.00
H457   H     0.60098   0.38145   0.53070   0.00000  Uiso   1.00
H458   H     0.60094   0.38677   0.79663   0.00000  Uiso   1.00
H459   H     0.74070   0.21952   0.70540   0.00000  Uiso   1.00
H460   H     0.73590   0.21828   0.95195   0.00000  Uiso   1.00
H461   H     0.62340   0.20248   0.76764   0.00000  Uiso   1.00
H462   H     0.73260   0.46422   0.09649   0.00000  Uiso   1.00
H463   H     0.73628   0.54755   0.21714   0.00000  Uiso   1.00
H464   H     0.61717   0.53227   0.15261   0.00000  Uiso   1.00
H465   H     0.62231   0.47594   0.39925   0.00000  Uiso   1.00
H466   H     0.72720   0.54923   0.46275   0.00000  Uiso   1.00
H467   H     0.62826   0.54103   0.41402   0.00000  Uiso   1.00
H468   H     0.62792   0.46715   0.14735   0.00000  Uiso   1.00
H469   H     0.74479   0.46414   0.33877   0.00000  Uiso   1.00
H470   H     0.72893   0.54616   0.71530   0.00000  Uiso   1.00
H471   H     0.63381   0.54886   0.66616   0.00000  Uiso   1.00
H472   H     0.73763   0.55336   0.97142   0.00000  Uiso   1.00
H473   H     0.63311   0.54866   0.91587   0.00000  Uiso   1.00
H474   H     0.62088   0.47669   0.90315   0.00000  Uiso   1.00
H475   H     0.63027   0.46410   0.64714   0.00000  Uiso   1.00
H476   H     0.73541   0.46271   0.84509   0.00000  Uiso   1.00
H477   H     0.74324   0.45945   0.59421   0.00000  Uiso   1.00
H478   H     0.59678   0.62797   0.02252   0.00000  Uiso   1.00
H479   H     0.58740   0.73272   0.29558   0.00000  Uiso   1.00
H480   H     0.59007   0.61506   0.26899   0.00000  Uiso   1.00
H481   H     0.59222   0.72900   0.04155   0.00000  Uiso   1.00
H482   H     0.72960   0.79996   0.08602   0.00000  Uiso   1.00
H483   H     0.73673   0.79522   0.34118   0.00000  Uiso   1.00
H484   H     0.62624   0.79928   0.13816   0.00000  Uiso   1.00
H485   H     0.60257   0.62972   0.77231   0.00000  Uiso   1.00
H486   H     0.59277   0.62057   0.51444   0.00000  Uiso   1.00
H487   H     0.59247   0.72554   0.78536   0.00000  Uiso   1.00
H488   H     0.60506   0.71352   0.53299   0.00000  Uiso   1.00
H489   H     0.63927   0.79648   0.63677   0.00000  Uiso   1.00
H490   H     0.74481   0.79393   0.58819   0.00000  Uiso   1.00
H491   H     0.59323   0.96195   0.02451   0.00000  Uiso   1.00
H492   H     0.62623   0.87505   0.16024   0.00000  Uiso   1.00
H493   H     0.59837   0.96002   0.26301   0.00000  Uiso   1.00
H494   H     0.62593   0.88039   0.41056   0.00000  Uiso   1.00
H495   H     0.74146   0.88453   0.46019   0.00000  Uiso   1.00
H496   H     0.62665   0.80758   0.40188   0.00000  Uiso   1.00
H497   H     0.72918   0.88268   0.21081   0.00000  Uiso   1.00
H498   H     0.73127   0.88535   0.71003   0.00000  Uiso   1.00
H499   H     0.62643   0.86840   0.64715   0.00000  Uiso   1.00
H500   H     0.59230   0.94926   0.75904   0.00000  Uiso   1.00
H501   H     0.62513   0.87630   0.90855   0.00000  Uiso   1.00
H502   H     0.59769   0.96249   0.51634   0.00000  Uiso   1.00
H503   H     0.73962   0.88816   0.96175   0.00000  Uiso   1.00
H504   H     0.62211   0.80996   0.89361   0.00000  Uiso   1.00
H505   H     0.72740   0.80083   0.83643   0.00000  Uiso   1.00
H506   H     0.98155   0.04721   0.09319   0.00000  Uiso   1.00
H507   H     0.87240   0.03585   0.15100   0.00000  Uiso   1.00
H508   H     0.84287   0.12232   0.03529   0.00000  Uiso   1.00
H509   H     0.88454   0.04775   0.39507   0.00000  Uiso   1.00
H510   H     0.84795   0.12914   0.28199   0.00000  Uiso   1.00
H511   H     0.88977   0.04352   0.63897   0.00000  Uiso   1.00
H512   H     0.85234   0.13612   0.53044   0.00000  Uiso   1.00
H513   H     0.87114   0.03505   0.89669   0.00000  Uiso   1.00
H514   H     0.84904   0.12692   0.77692   0.00000  Uiso   1.00
H515   H     0.98434   0.05086   0.84157   0.00000  Uiso   1.00
H516   H     0.99027   0.05195   0.58967   0.00000  Uiso   1.00
H517   H     0.87905   0.30219   0.15980   0.00000  Uiso   1.00
H518   H     0.87610   0.30559   0.40967   0.00000  Uiso   1.00
H519   H     0.99340   0.38732   0.08181   0.00000  Uiso   1.00
H520   H     0.99028   0.29187   0.46495   0.00000  Uiso   1.00
H521   H     0.84376   0.22365   0.01549   0.00000  Uiso   1.00
H522   H     0.87593   0.37319   0.39848   0.00000  Uiso   1.00
H523   H     0.98305   0.38254   0.34161   0.00000  Uiso   1.00
H524   H     0.85061   0.21406   0.27400   0.00000  Uiso   1.00
H525   H     0.98485   0.29376   0.20854   0.00000  Uiso   1.00
H526   H     0.80773   0.39972   0.26658   0.00000  Uiso   1.00
H527   H     0.87871   0.29937   0.65730   0.00000  Uiso   1.00
H528   H     0.98194   0.29739   0.96741   0.00000  Uiso   1.00
H529   H     0.87174   0.30231   0.90765   0.00000  Uiso   1.00
H530   H     0.98671   0.38358   0.58673   0.00000  Uiso   1.00
H531   H     0.87911   0.37508   0.90366   0.00000  Uiso   1.00
H532   H     0.98715   0.38417   0.83610   0.00000  Uiso   1.00
H533   H     0.84748   0.22060   0.51200   0.00000  Uiso   1.00
H534   H     0.87787   0.37216   0.65519   0.00000  Uiso   1.00
H535   H     0.84603   0.21625   0.77222   0.00000  Uiso   1.00
H536   H     0.98806   0.29625   0.71435   0.00000  Uiso   1.00
H537   H     0.91895   0.44465   0.16118   0.00000  Uiso   1.00
H538   H     0.85117   0.54850   0.02802   0.00000  Uiso   1.00
H539   H     0.86199   0.47704   0.02001   0.00000  Uiso   1.00
H540   H     0.84194   0.55755   0.26973   0.00000  Uiso   1.00
H541   H     0.84882   0.55009   0.52357   0.00000  Uiso   1.00
H542   H     0.84867   0.46304   0.78677   0.00000  Uiso   1.00
H543   H     0.85110   0.45483   0.54189   0.00000  Uiso   1.00
H544   H     0.84586   0.55210   0.76805   0.00000  Uiso   1.00
H545   H     0.87935   0.63792   0.41208   0.00000  Uiso   1.00
H546   H     0.88428   0.71839   0.13976   0.00000  Uiso   1.00
H547   H     0.87907   0.70649   0.39769   0.00000  Uiso   1.00
H548   H     0.98608   0.71745   0.33870   0.00000  Uiso   1.00
H549   H     0.88229   0.64026   0.15959   0.00000  Uiso   1.00
H550   H     0.98927   0.62686   0.46881   0.00000  Uiso   1.00
H551   H     0.83904   0.78423   0.29499   0.00000  Uiso   1.00
H552   H     0.98222   0.71992   0.09001   0.00000  Uiso   1.00
H553   H     0.97987   0.63126   0.21813   0.00000  Uiso   1.00
H554   H     0.84600   0.79913   0.02366   0.00000  Uiso   1.00
H555   H     0.99239   0.63040   0.71722   0.00000  Uiso   1.00
H556   H     0.87999   0.63944   0.65754   0.00000  Uiso   1.00
H557   H     0.87769   0.71164   0.64535   0.00000  Uiso   1.00
H558   H     0.87296   0.70739   0.89152   0.00000  Uiso   1.00
H559   H     0.99134   0.71989   0.59219   0.00000  Uiso   1.00
H560   H     0.88443   0.62655   0.91855   0.00000  Uiso   1.00
H561   H     0.98583   0.62586   0.96729   0.00000  Uiso   1.00
H562   H     0.98200   0.71515   0.83761   0.00000  Uiso   1.00
H563   H     0.84833   0.79684   0.52633   0.00000  Uiso   1.00
H564   H     0.84303   0.78981   0.79155   0.00000  Uiso   1.00
H565   H     0.87778   0.96688   0.15550   0.00000  Uiso   1.00
H566   H     0.97499   0.96250   0.22080   0.00000  Uiso   1.00
H567   H     0.87693   0.96909   0.40854   0.00000  Uiso   1.00
H568   H     0.84162   0.88976   0.26290   0.00000  Uiso   1.00
H569   H     0.85068   0.87344   0.02309   0.00000  Uiso   1.00
H570   H     0.98415   0.95987   0.46687   0.00000  Uiso   1.00
H571   H     0.98556   0.95869   0.71288   0.00000  Uiso   1.00
H572   H     0.86713   0.98224   0.65654   0.00000  Uiso   1.00
H573   H     0.84517   0.89259   0.52227   0.00000  Uiso   1.00
H574   H     0.88074   0.97231   0.90288   0.00000  Uiso   1.00
H575   H     0.84638   0.88787   0.76427   0.00000  Uiso   1.00
H576   H     0.97918   0.96056   0.96362   0.00000  Uiso   1.00
C577   C     0.10902   0.06134   0.18371   0.00000  Uiso   1.00
C578   C     0.14493   0.07922   0.18844   0.00000  Uiso   1.00
C579   C     0.04101   0.05112   0.21273   0.00000  Uiso   1.00
C580   C     0.07749   0.07310   0.21212   0.00000  Uiso   1.00
C581   C     0.18605   0.13245   0.21895   0.00000  Uiso   1.00
C582   C     0.15019   0.10969   0.22104   0.00000  Uiso   1.00
C583   C     0.08193   0.10161   0.24574   0.00000  Uiso   1.00
C584   C     0.11781   0.11950   0.24942   0.00000  Uiso   1.00
C585   C     0.09193   0.09429   0.42766   0.00000  Uiso   1.00
C586   C     0.12896   0.11146   0.42733   0.00000  Uiso   1.00
C587   C     0.04636   0.04827   0.46791   0.00000  Uiso   1.00
C588   C     0.08331   0.06793   0.46486   0.00000  Uiso   1.00
C589   C     0.19298   0.12786   0.46676   0.00000  Uiso   1.00
C590   C     0.15584   0.10467   0.46588   0.00000  Uiso   1.00
C591   C     0.13814   0.08712   0.00887   0.00000  Uiso   1.00
C592   C     0.10316   0.06819   0.00923   0.00000  Uiso   1.00
C593   C     0.09165   0.09392   0.67826   0.00000  Uiso   1.00
C594   C     0.13009   0.10820   0.67666   0.00000  Uiso   1.00
C595   C     0.04532   0.04846   0.71829   0.00000  Uiso   1.00
C596   C     0.08236   0.06970   0.71755   0.00000  Uiso   1.00
C597   C     0.19275   0.12708   0.71755   0.00000  Uiso   1.00
C598   C     0.15679   0.10291   0.71657   0.00000  Uiso   1.00
C599   C     0.10842   0.06583   0.75989   0.00000  Uiso   1.00
C600   C     0.14558   0.08206   0.75943   0.00000  Uiso   1.00
C601   C     0.08608   0.09569   0.92736   0.00000  Uiso   1.00
C602   C     0.12204   0.11404   0.92751   0.00000  Uiso   1.00
C603   C     0.04055   0.05042   0.96854   0.00000  Uiso   1.00
C604   C     0.07499   0.07380   0.97133   0.00000  Uiso   1.00
C605   C     0.18290   0.13761   0.97047   0.00000  Uiso   1.00
C606   C     0.14695   0.11319   0.97105   0.00000  Uiso   1.00
C607   C     0.14778   0.07737   0.50230   0.00000  Uiso   1.00
C608   C     0.11172   0.05963   0.50219   0.00000  Uiso   1.00
C609   C     0.04281   0.38380   0.46355   0.00000  Uiso   1.00
C610   C     0.18427   0.21499   0.09328   0.00000  Uiso   1.00
C611   C     0.13941   0.26282   0.05972   0.00000  Uiso   1.00
C612   C     0.10224   0.28060   0.05948   0.00000  Uiso   1.00
C613   C     0.14835   0.23625   0.09621   0.00000  Uiso   1.00
C614   C     0.03944   0.29248   0.09632   0.00000  Uiso   1.00
C615   C     0.07515   0.27211   0.09681   0.00000  Uiso   1.00
C616   C     0.11952   0.22824   0.13249   0.00000  Uiso   1.00
C617   C     0.08372   0.24653   0.13483   0.00000  Uiso   1.00
C618   C     0.04052   0.38611   0.21337   0.00000  Uiso   1.00
C619   C     0.14469   0.26083   0.30283   0.00000  Uiso   1.00
C620   C     0.10689   0.27608   0.29871   0.00000  Uiso   1.00
C621   C     0.18710   0.21438   0.34214   0.00000  Uiso   1.00
C622   C     0.15077   0.23638   0.34216   0.00000  Uiso   1.00
C623   C     0.04190   0.29170   0.33204   0.00000  Uiso   1.00
C624   C     0.07829   0.26815   0.33294   0.00000  Uiso   1.00
C625   C     0.12114   0.22714   0.37632   0.00000  Uiso   1.00
C626   C     0.08534   0.24520   0.37411   0.00000  Uiso   1.00
C627   C     0.10834   0.39728   0.24815   0.00000  Uiso   1.00
C628   C     0.10717   0.39997   0.00383   0.00000  Uiso   1.00
C629   C     0.18075   0.20232   0.84072   0.00000  Uiso   1.00
C630   C     0.12117   0.22304   0.56137   0.00000  Uiso   1.00
C631   C     0.08933   0.24526   0.56044   0.00000  Uiso   1.00
C632   C     0.18807   0.20936   0.59662   0.00000  Uiso   1.00
C633   C     0.14948   0.22783   0.60098   0.00000  Uiso   1.00
C634   C     0.04728   0.29602   0.59708   0.00000  Uiso   1.00
C635   C     0.08205   0.27116   0.60065   0.00000  Uiso   1.00
C636   C     0.14214   0.25158   0.64280   0.00000  Uiso   1.00
C637   C     0.10815   0.27373   0.64132   0.00000  Uiso   1.00
C638   C     0.04320   0.38518   0.71075   0.00000  Uiso   1.00
C639   C     0.11403   0.21909   0.80191   0.00000  Uiso   1.00
C640   C     0.08102   0.24073   0.80221   0.00000  Uiso   1.00
C641   C     0.14408   0.22387   0.83905   0.00000  Uiso   1.00
C642   C     0.03605   0.28770   0.83917   0.00000  Uiso   1.00
C643   C     0.07126   0.26473   0.84165   0.00000  Uiso   1.00
C644   C     0.13686   0.25045   0.87516   0.00000  Uiso   1.00
C645   C     0.10181   0.27219   0.87624   0.00000  Uiso   1.00
C646   C     0.04351   0.38443   0.96302   0.00000  Uiso   1.00
C647   C     0.08109   0.57693   0.06305   0.00000  Uiso   1.00
C648   C     0.07634   0.40961   0.46620   0.00000  Uiso   1.00
C649   C     0.11585   0.55616   0.06057   0.00000  Uiso   1.00
C650   C     0.08611   0.43328   0.42602   0.00000  Uiso   1.00
C651   C     0.11504   0.45993   0.18932   0.00000  Uiso   1.00
C652   C     0.09215   0.58957   0.29467   0.00000  Uiso   1.00
C653   C     0.18681   0.54463   0.08654   0.00000  Uiso   1.00
C654   C     0.15082   0.56736   0.08705   0.00000  Uiso   1.00
C655   C     0.12637   0.56801   0.29182   0.00000  Uiso   1.00
C656   C     0.08137   0.43936   0.18991   0.00000  Uiso   1.00
C657   C     0.18570   0.46589   0.21215   0.00000  Uiso   1.00
C658   C     0.14819   0.44586   0.21635   0.00000  Uiso   1.00
C659   C     0.14279   0.41608   0.24804   0.00000  Uiso   1.00
C660   C     0.18544   0.54097   0.33574   0.00000  Uiso   1.00
C661   C     0.14906   0.56233   0.33483   0.00000  Uiso   1.00
C662   C     0.12195   0.44931   0.42328   0.00000  Uiso   1.00
C663   C     0.07684   0.40775   0.21652   0.00000  Uiso   1.00
C664   C     0.18753   0.46391   0.46121   0.00000  Uiso   1.00
C665   C     0.14953   0.44517   0.46360   0.00000  Uiso   1.00
C666   C     0.13556   0.57661   0.38185   0.00000  Uiso   1.00
C667   C     0.14960   0.59936   0.11576   0.00000  Uiso   1.00
C668   C     0.10081   0.59709   0.38472   0.00000  Uiso   1.00
C669   C     0.11179   0.55261   0.56163   0.00000  Uiso   1.00
C670   C     0.14583   0.41316   0.99864   0.00000  Uiso   1.00
C671   C     0.08892   0.42854   0.92421   0.00000  Uiso   1.00
C672   C     0.12489   0.44952   0.67299   0.00000  Uiso   1.00
C673   C     0.08533   0.58078   0.80713   0.00000  Uiso   1.00
C674   C     0.10208   0.40701   0.50809   0.00000  Uiso   1.00
C675   C     0.18243   0.54050   0.59130   0.00000  Uiso   1.00
C676   C     0.14264   0.55779   0.59637   0.00000  Uiso   1.00
C677   C     0.13681   0.58078   0.63814   0.00000  Uiso   1.00
C678   C     0.18740   0.46508   0.71327   0.00000  Uiso   1.00
C679   C     0.15285   0.44231   0.71295   0.00000  Uiso   1.00
C680   C     0.11952   0.56061   0.80716   0.00000  Uiso   1.00
C681   C     0.14398   0.41676   0.75016   0.00000  Uiso   1.00
C682   C     0.18561   0.54246   0.84645   0.00000  Uiso   1.00
C683   C     0.14818   0.56341   0.84619   0.00000  Uiso   1.00
C684   C     0.08747   0.43332   0.67315   0.00000  Uiso   1.00
C685   C     0.12498   0.44831   0.92518   0.00000  Uiso   1.00
C686   C     0.18999   0.46230   0.96161   0.00000  Uiso   1.00
C687   C     0.15292   0.44038   0.96267   0.00000  Uiso   1.00
C688   C     0.07982   0.40655   0.71040   0.00000  Uiso   1.00
C689   C     0.07985   0.40617   0.96527   0.00000  Uiso   1.00
C690   C     0.07772   0.57407   0.56574   0.00000  Uiso   1.00
C691   C     0.13844   0.42542   0.50730   0.00000  Uiso   1.00
C692   C     0.14060   0.58716   0.88639   0.00000  Uiso   1.00
C693   C     0.10759   0.40083   0.75025   0.00000  Uiso   1.00
C694   C     0.07382   0.59854   0.60270   0.00000  Uiso   1.00
C695   C     0.07770   0.60282   0.34036   0.00000  Uiso   1.00
C696   C     0.12122   0.78778   0.42516   0.00000  Uiso   1.00
C697   C     0.04542   0.63212   0.09568   0.00000  Uiso   1.00
C698   C     0.12240   0.78724   0.16907   0.00000  Uiso   1.00
C699   C     0.08457   0.77138   0.16987   0.00000  Uiso   1.00
C700   C     0.13708   0.75866   0.00963   0.00000  Uiso   1.00
C701   C     0.03921   0.72524   0.21321   0.00000  Uiso   1.00
C702   C     0.07376   0.74918   0.21153   0.00000  Uiso   1.00
C703   C     0.14814   0.78307   0.46381   0.00000  Uiso   1.00
C704   C     0.14863   0.78421   0.21047   0.00000  Uiso   1.00
C705   C     0.04048   0.62636   0.33793   0.00000  Uiso   1.00
C706   C     0.09718   0.74975   0.25458   0.00000  Uiso   1.00
C707   C     0.13508   0.76512   0.25344   0.00000  Uiso   1.00
C708   C     0.08721   0.76830   0.42243   0.00000  Uiso   1.00
C709   C     0.04250   0.71956   0.46316   0.00000  Uiso   1.00
C710   C     0.07706   0.74460   0.46301   0.00000  Uiso   1.00
C711   C     0.11501   0.61816   0.12129   0.00000  Uiso   1.00
C712   C     0.10015   0.74181   0.00895   0.00000  Uiso   1.00
C713   C     0.07973   0.60890   0.09307   0.00000  Uiso   1.00
C714   C     0.07472   0.74215   0.96623   0.00000  Uiso   1.00
C715   C     0.11494   0.79214   0.67757   0.00000  Uiso   1.00
C716   C     0.10369   0.60182   0.63984   0.00000  Uiso   1.00
C717   C     0.04128   0.62478   0.59707   0.00000  Uiso   1.00
C718   C     0.10329   0.74172   0.50597   0.00000  Uiso   1.00
C719   C     0.07934   0.77389   0.67957   0.00000  Uiso   1.00
C720   C     0.03543   0.72321   0.72017   0.00000  Uiso   1.00
C721   C     0.07062   0.74858   0.71867   0.00000  Uiso   1.00
C722   C     0.07866   0.60724   0.84665   0.00000  Uiso   1.00
C723   C     0.14394   0.78380   0.71345   0.00000  Uiso   1.00
C724   C     0.04381   0.62888   0.84601   0.00000  Uiso   1.00
C725   C     0.10096   0.74094   0.75328   0.00000  Uiso   1.00
C726   C     0.13673   0.75779   0.75006   0.00000  Uiso   1.00
C727   C     0.08678   0.76376   0.92504   0.00000  Uiso   1.00
C728   C     0.14768   0.78181   0.97006   0.00000  Uiso   1.00
C729   C     0.03891   0.71962   0.96724   0.00000  Uiso   1.00
C730   C     0.12340   0.78267   0.92858   0.00000  Uiso   1.00
C731   C     0.13982   0.75974   0.50454   0.00000  Uiso   1.00
C732   C     0.10710   0.61185   0.88530   0.00000  Uiso   1.00
C733   C     0.18614   0.79946   0.96857   0.00000  Uiso   1.00
C734   C     0.13240   0.91693   0.04296   0.00000  Uiso   1.00
C735   C     0.09740   0.93514   0.04699   0.00000  Uiso   1.00
C736   C     0.18289   0.87559   0.08342   0.00000  Uiso   1.00
C737   C     0.14605   0.89663   0.08425   0.00000  Uiso   1.00
C738   C     0.03844   0.95570   0.09327   0.00000  Uiso   1.00
C739   C     0.07446   0.93359   0.09089   0.00000  Uiso   1.00
C740   C     0.12209   0.89040   0.12829   0.00000  Uiso   1.00
C741   C     0.08351   0.90769   0.12875   0.00000  Uiso   1.00
C742   C     0.13704   0.92168   0.29351   0.00000  Uiso   1.00
C743   C     0.10223   0.93935   0.29982   0.00000  Uiso   1.00
C744   C     0.18652   0.87764   0.33161   0.00000  Uiso   1.00
C745   C     0.14892   0.89921   0.33391   0.00000  Uiso   1.00
C746   C     0.03889   0.95698   0.34072   0.00000  Uiso   1.00
C747   C     0.07404   0.93211   0.33786   0.00000  Uiso   1.00
C748   C     0.12356   0.89278   0.37372   0.00000  Uiso   1.00
C749   C     0.08602   0.90989   0.37883   0.00000  Uiso   1.00
C750   C     0.18687   0.80432   0.20955   0.00000  Uiso   1.00
C751   C     0.18654   0.80330   0.46199   0.00000  Uiso   1.00
C752   C     0.13357   0.91663   0.54697   0.00000  Uiso   1.00
C753   C     0.09690   0.93390   0.54875   0.00000  Uiso   1.00
C754   C     0.18526   0.87905   0.58215   0.00000  Uiso   1.00
C755   C     0.14594   0.89334   0.58509   0.00000  Uiso   1.00
C756   C     0.03784   0.95176   0.59179   0.00000  Uiso   1.00
C757   C     0.07041   0.92627   0.58855   0.00000  Uiso   1.00
C758   C     0.11940   0.88555   0.62420   0.00000  Uiso   1.00
C759   C     0.08133   0.90217   0.62651   0.00000  Uiso   1.00
C760   C     0.14537   0.92842   0.80566   0.00000  Uiso   1.00
C761   C     0.11183   0.94915   0.80786   0.00000  Uiso   1.00
C762   C     0.18618   0.87763   0.83758   0.00000  Uiso   1.00
C763   C     0.15062   0.89947   0.83815   0.00000  Uiso   1.00
C764   C     0.04418   0.96129   0.84135   0.00000  Uiso   1.00
C765   C     0.08123   0.94142   0.84400   0.00000  Uiso   1.00
C766   C     0.11882   0.88900   0.87120   0.00000  Uiso   1.00
C767   C     0.08509   0.90930   0.87321   0.00000  Uiso   1.00
C768   C     0.18196   0.80323   0.71156   0.00000  Uiso   1.00
C769   C     0.39512   0.09873   0.00127   0.00000  Uiso   1.00
C770   C     0.36010   0.11789   0.17311   0.00000  Uiso   1.00
C771   C     0.39610   0.09759   0.17564   0.00000  Uiso   1.00
C772   C     0.29443   0.12998   0.20833   0.00000  Uiso   1.00
C773   C     0.32845   0.10829   0.20507   0.00000  Uiso   1.00
C774   C     0.43564   0.04813   0.21491   0.00000  Uiso   1.00
C775   C     0.39837   0.06968   0.21019   0.00000  Uiso   1.00
C776   C     0.34102   0.08588   0.42197   0.00000  Uiso   1.00
C777   C     0.37675   0.06887   0.42036   0.00000  Uiso   1.00
C778   C     0.29595   0.12915   0.46633   0.00000  Uiso   1.00
C779   C     0.33136   0.10605   0.46511   0.00000  Uiso   1.00
C780   C     0.43738   0.04658   0.46497   0.00000  Uiso   1.00
C781   C     0.40239   0.07026   0.46226   0.00000  Uiso   1.00
C782   C     0.33066   0.07834   0.23688   0.00000  Uiso   1.00
C783   C     0.36601   0.05994   0.24035   0.00000  Uiso   1.00
C784   C     0.35737   0.11584   0.00802   0.00000  Uiso   1.00
C785   C     0.33485   0.07397   0.68668   0.00000  Uiso   1.00
C786   C     0.37218   0.05722   0.68288   0.00000  Uiso   1.00
C787   C     0.29593   0.12708   0.72288   0.00000  Uiso   1.00
C788   C     0.32673   0.10030   0.72463   0.00000  Uiso   1.00
C789   C     0.43949   0.04626   0.71017   0.00000  Uiso   1.00
C790   C     0.40368   0.06730   0.71492   0.00000  Uiso   1.00
C791   C     0.33105   0.07926   0.93600   0.00000  Uiso   1.00
C792   C     0.36652   0.06028   0.93533   0.00000  Uiso   1.00
C793   C     0.29189   0.12990   0.97174   0.00000  Uiso   1.00
C794   C     0.32715   0.10757   0.97238   0.00000  Uiso   1.00
C795   C     0.43560   0.04728   0.96183   0.00000  Uiso   1.00
C796   C     0.39909   0.06830   0.96735   0.00000  Uiso   1.00
C797   C     0.35739   0.10714   0.75781   0.00000  Uiso   1.00
C798   C     0.39486   0.09148   0.75561   0.00000  Uiso   1.00
C799   C     0.39426   0.09400   0.50289   0.00000  Uiso   1.00
C800   C     0.35849   0.11035   0.50434   0.00000  Uiso   1.00
C801   C     0.39768   0.39882   0.21302   0.00000  Uiso   1.00
C802   C     0.29204   0.22257   0.34301   0.00000  Uiso   1.00
C803   C     0.36885   0.28750   0.13594   0.00000  Uiso   1.00
C804   C     0.33245   0.27270   0.13630   0.00000  Uiso   1.00
C805   C     0.38178   0.26359   0.05055   0.00000  Uiso   1.00
C806   C     0.34815   0.24341   0.05414   0.00000  Uiso   1.00
C807   C     0.43275   0.30196   0.09255   0.00000  Uiso   1.00
C808   C     0.39476   0.28336   0.09262   0.00000  Uiso   1.00
C809   C     0.28569   0.22597   0.09508   0.00000  Uiso   1.00
C810   C     0.32138   0.24974   0.09441   0.00000  Uiso   1.00
C811   C     0.43282   0.37642   0.21443   0.00000  Uiso   1.00
C812   C     0.37059   0.28563   0.38632   0.00000  Uiso   1.00
C813   C     0.33298   0.27018   0.38334   0.00000  Uiso   1.00
C814   C     0.39445   0.25151   0.31490   0.00000  Uiso   1.00
C815   C     0.35867   0.23281   0.31439   0.00000  Uiso   1.00
C816   C     0.43599   0.30032   0.35327   0.00000  Uiso   1.00
C817   C     0.39979   0.27907   0.35095   0.00000  Uiso   1.00
C818   C     0.32735   0.24376   0.34555   0.00000  Uiso   1.00
C819   C     0.43604   0.38239   0.47322   0.00000  Uiso   1.00
C820   C     0.36785   0.39171   0.17631   0.00000  Uiso   1.00
C821   C     0.38019   0.27850   0.63179   0.00000  Uiso   1.00
C822   C     0.34668   0.25710   0.63410   0.00000  Uiso   1.00
C823   C     0.39425   0.25368   0.54760   0.00000  Uiso   1.00
C824   C     0.35815   0.23430   0.55039   0.00000  Uiso   1.00
C825   C     0.44117   0.29765   0.59013   0.00000  Uiso   1.00
C826   C     0.40467   0.27608   0.58902   0.00000  Uiso   1.00
C827   C     0.29600   0.21587   0.59175   0.00000  Uiso   1.00
C828   C     0.33210   0.23864   0.59188   0.00000  Uiso   1.00
C829   C     0.43645   0.37835   0.72472   0.00000  Uiso   1.00
C830   C     0.36571   0.28596   0.88265   0.00000  Uiso   1.00
C831   C     0.32810   0.27149   0.87482   0.00000  Uiso   1.00
C832   C     0.38957   0.24935   0.81374   0.00000  Uiso   1.00
C833   C     0.35161   0.23597   0.80659   0.00000  Uiso   1.00
C834   C     0.43324   0.29783   0.84957   0.00000  Uiso   1.00
C835   C     0.39627   0.27423   0.85116   0.00000  Uiso   1.00
C836   C     0.28813   0.21998   0.84182   0.00000  Uiso   1.00
C837   C     0.32099   0.24501   0.83951   0.00000  Uiso   1.00
C838   C     0.43943   0.38002   0.97649   0.00000  Uiso   1.00
C839   C     0.37581   0.39607   0.68269   0.00000  Uiso   1.00
C840   C     0.39995   0.39861   0.72630   0.00000  Uiso   1.00
C841   C     0.36712   0.39366   0.50118   0.00000  Uiso   1.00
C842   C     0.37745   0.39572   0.93430   0.00000  Uiso   1.00
C843   C     0.40122   0.40472   0.47341   0.00000  Uiso   1.00
C844   C     0.39887   0.43568   0.44091   0.00000  Uiso   1.00
C845   C     0.39301   0.58002   0.30491   0.00000  Uiso   1.00
C846   C     0.39162   0.42693   0.24897   0.00000  Uiso   1.00
C847   C     0.32657   0.57393   0.33830   0.00000  Uiso   1.00
C848   C     0.36483   0.45532   0.43637   0.00000  Uiso   1.00
C849   C     0.35414   0.44351   0.25219   0.00000  Uiso   1.00
C850   C     0.29129   0.45793   0.21261   0.00000  Uiso   1.00
C851   C     0.32542   0.43655   0.21501   0.00000  Uiso   1.00
C852   C     0.33242   0.40899   0.17691   0.00000  Uiso   1.00
C853   C     0.28993   0.55420   0.08659   0.00000  Uiso   1.00
C854   C     0.32479   0.57703   0.08778   0.00000  Uiso   1.00
C855   C     0.28970   0.55500   0.33940   0.00000  Uiso   1.00
C856   C     0.29647   0.46499   0.46409   0.00000  Uiso   1.00
C857   C     0.33337   0.44393   0.46550   0.00000  Uiso   1.00
C858   C     0.34864   0.57498   0.04507   0.00000  Uiso   1.00
C859   C     0.35531   0.56606   0.30254   0.00000  Uiso   1.00
C860   C     0.38301   0.59500   0.04271   0.00000  Uiso   1.00
C861   C     0.33501   0.41443   0.49897   0.00000  Uiso   1.00
C862   C     0.35722   0.44423   0.01143   0.00000  Uiso   1.00
C863   C     0.33766   0.59481   0.38076   0.00000  Uiso   1.00
C864   C     0.33757   0.59932   0.13052   0.00000  Uiso   1.00
C865   C     0.39347   0.42391   0.01296   0.00000  Uiso   1.00
C866   C     0.39071   0.42333   0.76678   0.00000  Uiso   1.00
C867   C     0.35162   0.57807   0.79700   0.00000  Uiso   1.00
C868   C     0.35696   0.44402   0.76206   0.00000  Uiso   1.00
C869   C     0.32421   0.58154   0.83448   0.00000  Uiso   1.00
C870   C     0.34179   0.41410   0.93193   0.00000  Uiso   1.00
C871   C     0.38642   0.58978   0.54635   0.00000  Uiso   1.00
C872   C     0.29246   0.45943   0.71833   0.00000  Uiso   1.00
C873   C     0.32929   0.43906   0.72079   0.00000  Uiso   1.00
C874   C     0.28805   0.55699   0.83627   0.00000  Uiso   1.00
C875   C     0.28756   0.55695   0.58594   0.00000  Uiso   1.00
C876   C     0.32371   0.57959   0.58623   0.00000  Uiso   1.00
C877   C     0.35138   0.57031   0.54916   0.00000  Uiso   1.00
C878   C     0.33942   0.41399   0.68402   0.00000  Uiso   1.00
C879   C     0.29590   0.46192   0.96771   0.00000  Uiso   1.00
C880   C     0.33186   0.43932   0.97078   0.00000  Uiso   1.00
C881   C     0.38618   0.59608   0.79674   0.00000  Uiso   1.00
C882   C     0.40412   0.40134   0.97487   0.00000  Uiso   1.00
C883   C     0.37566   0.61086   0.38214   0.00000  Uiso   1.00
C884   C     0.37300   0.61626   0.13053   0.00000  Uiso   1.00
C885   C     0.33821   0.74707   0.16391   0.00000  Uiso   1.00
C886   C     0.43431   0.63614   0.08943   0.00000  Uiso   1.00
C887   C     0.29404   0.79595   0.45734   0.00000  Uiso   1.00
C888   C     0.37309   0.72662   0.16681   0.00000  Uiso   1.00
C889   C     0.32581   0.76824   0.20600   0.00000  Uiso   1.00
C890   C     0.43120   0.70409   0.21329   0.00000  Uiso   1.00
C891   C     0.39388   0.72409   0.21238   0.00000  Uiso   1.00
C892   C     0.40312   0.60402   0.34342   0.00000  Uiso   1.00
C893   C     0.43831   0.62758   0.34212   0.00000  Uiso   1.00
C894   C     0.33613   0.74521   0.42238   0.00000  Uiso   1.00
C895   C     0.37111   0.72473   0.42823   0.00000  Uiso   1.00
C896   C     0.33150   0.77415   0.45681   0.00000  Uiso   1.00
C897   C     0.43613   0.71019   0.46710   0.00000  Uiso   1.00
C898   C     0.39957   0.73373   0.46529   0.00000  Uiso   1.00
C899   C     0.34933   0.76764   0.24954   0.00000  Uiso   1.00
C900   C     0.38069   0.74463   0.25382   0.00000  Uiso   1.00
C901   C     0.39708   0.61385   0.08726   0.00000  Uiso   1.00
C902   C     0.29016   0.79160   0.20558   0.00000  Uiso   1.00
C903   C     0.35826   0.78144   0.49711   0.00000  Uiso   1.00
C904   C     0.38902   0.76119   0.00306   0.00000  Uiso   1.00
C905   C     0.35325   0.77802   0.00136   0.00000  Uiso   1.00
C906   C     0.28963   0.79595   0.70836   0.00000  Uiso   1.00
C907   C     0.33264   0.60310   0.87574   0.00000  Uiso   1.00
C908   C     0.39300   0.76068   0.50066   0.00000  Uiso   1.00
C909   C     0.28754   0.78960   0.96413   0.00000  Uiso   1.00
C910   C     0.39580   0.61502   0.58450   0.00000  Uiso   1.00
C911   C     0.36839   0.61955   0.87996   0.00000  Uiso   1.00
C912   C     0.33817   0.75262   0.66307   0.00000  Uiso   1.00
C913   C     0.43402   0.63307   0.58749   0.00000  Uiso   1.00
C914   C     0.37407   0.73129   0.66581   0.00000  Uiso   1.00
C915   C     0.32445   0.77283   0.70616   0.00000  Uiso   1.00
C916   C     0.43469   0.70866   0.71441   0.00000  Uiso   1.00
C917   C     0.39821   0.73208   0.71025   0.00000  Uiso   1.00
C918   C     0.43409   0.63623   0.83915   0.00000  Uiso   1.00
C919   C     0.39667   0.61605   0.83852   0.00000  Uiso   1.00
C920   C     0.33464   0.74230   0.92958   0.00000  Uiso   1.00
C921   C     0.37296   0.72856   0.92738   0.00000  Uiso   1.00
C922   C     0.32387   0.76665   0.96721   0.00000  Uiso   1.00
C923   C     0.43665   0.71599   0.96612   0.00000  Uiso   1.00
C924   C     0.40014   0.73752   0.96466   0.00000  Uiso   1.00
C925   C     0.34715   0.76975   0.75041   0.00000  Uiso   1.00
C926   C     0.38550   0.75370   0.75154   0.00000  Uiso   1.00
C927   C     0.36853   0.62285   0.62246   0.00000  Uiso   1.00
C928   C     0.33311   0.60426   0.62512   0.00000  Uiso   1.00
C929   C     0.36964   0.95472   0.13326   0.00000  Uiso   1.00
C930   C     0.33206   0.93896   0.12994   0.00000  Uiso   1.00
C931   C     0.38656   0.92422   0.05215   0.00000  Uiso   1.00
C932   C     0.34946   0.90874   0.05093   0.00000  Uiso   1.00
C933   C     0.43133   0.97224   0.08833   0.00000  Uiso   1.00
C934   C     0.39601   0.95064   0.09095   0.00000  Uiso   1.00
C935   C     0.28828   0.89138   0.08818   0.00000  Uiso   1.00
C936   C     0.32268   0.91591   0.08861   0.00000  Uiso   1.00
C937   C     0.37214   0.95137   0.37559   0.00000  Uiso   1.00
C938   C     0.33618   0.93318   0.37716   0.00000  Uiso   1.00
C939   C     0.39121   0.92158   0.29850   0.00000  Uiso   1.00
C940   C     0.35425   0.90698   0.29550   0.00000  Uiso   1.00
C941   C     0.43645   0.96640   0.33801   0.00000  Uiso   1.00
C942   C     0.40045   0.94522   0.33804   0.00000  Uiso   1.00
C943   C     0.29268   0.88533   0.33622   0.00000  Uiso   1.00
C944   C     0.32707   0.91023   0.33669   0.00000  Uiso   1.00
C945   C     0.39588   0.91043   0.60551   0.00000  Uiso   1.00
C946   C     0.36029   0.89214   0.61097   0.00000  Uiso   1.00
C947   C     0.36321   0.96230   0.56769   0.00000  Uiso   1.00
C948   C     0.32696   0.94248   0.56791   0.00000  Uiso   1.00
C949   C     0.43293   0.96749   0.58648   0.00000  Uiso   1.00
C950   C     0.39705   0.94562   0.58533   0.00000  Uiso   1.00
C951   C     0.29136   0.88409   0.58881   0.00000  Uiso   1.00
C952   C     0.32674   0.90694   0.58865   0.00000  Uiso   1.00
C953   C     0.37016   0.95096   0.87837   0.00000  Uiso   1.00
C954   C     0.33681   0.93105   0.88317   0.00000  Uiso   1.00
C955   C     0.37889   0.92971   0.79316   0.00000  Uiso   1.00
C956   C     0.34296   0.91410   0.79460   0.00000  Uiso   1.00
C957   C     0.43106   0.97011   0.83579   0.00000  Uiso   1.00
C958   C     0.39370   0.94899   0.83417   0.00000  Uiso   1.00
C959   C     0.28721   0.88798   0.83847   0.00000  Uiso   1.00
C960   C     0.32121   0.91260   0.84061   0.00000  Uiso   1.00
C961   C     0.57971   0.10701   0.17336   0.00000  Uiso   1.00
C962   C     0.61667   0.12621   0.17382   0.00000  Uiso   1.00
C963   C     0.53932   0.05707   0.20952   0.00000  Uiso   1.00
C964   C     0.57265   0.08107   0.21059   0.00000  Uiso   1.00
C965   C     0.68198   0.14052   0.20763   0.00000  Uiso   1.00
C966   C     0.64400   0.12186   0.21099   0.00000  Uiso   1.00
C967   C     0.59949   0.07759   0.24931   0.00000  Uiso   1.00
C968   C     0.63359   0.09717   0.25155   0.00000  Uiso   1.00
C969   C     0.58783   0.09989   0.42624   0.00000  Uiso   1.00
C970   C     0.62382   0.11933   0.42624   0.00000  Uiso   1.00
C971   C     0.54443   0.04910   0.46338   0.00000  Uiso   1.00
C972   C     0.58039   0.07199   0.46330   0.00000  Uiso   1.00
C973   C     0.68935   0.13028   0.46301   0.00000  Uiso   1.00
C974   C     0.65181   0.11061   0.46477   0.00000  Uiso   1.00
C975   C     0.64279   0.08286   0.00197   0.00000  Uiso   1.00
C976   C     0.60668   0.06347   0.00264   0.00000  Uiso   1.00
C977   C     0.60870   0.06378   0.49802   0.00000  Uiso   1.00
C978   C     0.64508   0.08224   0.49956   0.00000  Uiso   1.00
C979   C     0.61273   0.06947   0.74367   0.00000  Uiso   1.00
C980   C     0.64442   0.09231   0.74285   0.00000  Uiso   1.00
C981   C     0.54643   0.05017   0.71030   0.00000  Uiso   1.00
C982   C     0.58315   0.07104   0.70688   0.00000  Uiso   1.00
C983   C     0.68611   0.13609   0.70154   0.00000  Uiso   1.00
C984   C     0.65005   0.11575   0.70335   0.00000  Uiso   1.00
C985   C     0.58652   0.09519   0.66788   0.00000  Uiso   1.00
C986   C     0.61940   0.11739   0.66549   0.00000  Uiso   1.00
C987   C     0.58646   0.09402   0.92593   0.00000  Uiso   1.00
C988   C     0.62105   0.11308   0.92630   0.00000  Uiso   1.00
C989   C     0.54395   0.04668   0.96366   0.00000  Uiso   1.00
C990   C     0.58040   0.06805   0.96362   0.00000  Uiso   1.00
C991   C     0.68388   0.13339   0.96293   0.00000  Uiso   1.00
C992   C     0.64751   0.11100   0.96628   0.00000  Uiso   1.00
C993   C     0.68597   0.21190   0.08515   0.00000  Uiso   1.00
C994   C     0.61446   0.22387   0.05656   0.00000  Uiso   1.00
C995   C     0.57857   0.23981   0.06736   0.00000  Uiso   1.00
C996   C     0.53743   0.39052   0.22037   0.00000  Uiso   1.00
C997   C     0.64634   0.22823   0.08972   0.00000  Uiso   1.00
C998   C     0.53903   0.28870   0.10753   0.00000  Uiso   1.00
C999   C     0.57446   0.26436   0.10733   0.00000  Uiso   1.00
C1000  C     0.64110   0.25093   0.13198   0.00000  Uiso   1.00
C1001  C     0.60568   0.26754   0.14215   0.00000  Uiso   1.00
C1002  C     0.68413   0.21471   0.32952   0.00000  Uiso   1.00
C1003  C     0.64444   0.26538   0.37196   0.00000  Uiso   1.00
C1004  C     0.61060   0.28609   0.37211   0.00000  Uiso   1.00
C1005  C     0.65013   0.23899   0.33278   0.00000  Uiso   1.00
C1006  C     0.54126   0.29732   0.34442   0.00000  Uiso   1.00
C1007  C     0.57781   0.27742   0.34098   0.00000  Uiso   1.00
C1008  C     0.62030   0.23432   0.29820   0.00000  Uiso   1.00
C1009  C     0.58361   0.25058   0.30401   0.00000  Uiso   1.00
C1010  C     0.54086   0.38980   0.47037   0.00000  Uiso   1.00
C1011  C     0.68372   0.20427   0.83101   0.00000  Uiso   1.00
C1012  C     0.54421   0.38405   0.72692   0.00000  Uiso   1.00
C1013  C     0.68857   0.21267   0.58690   0.00000  Uiso   1.00
C1014  C     0.62464   0.23387   0.55023   0.00000  Uiso   1.00
C1015  C     0.58993   0.25458   0.55537   0.00000  Uiso   1.00
C1016  C     0.54378   0.38088   0.96730   0.00000  Uiso   1.00
C1017  C     0.65225   0.23488   0.58970   0.00000  Uiso   1.00
C1018  C     0.54978   0.30100   0.59734   0.00000  Uiso   1.00
C1019  C     0.58460   0.27770   0.59664   0.00000  Uiso   1.00
C1020  C     0.64531   0.25664   0.63192   0.00000  Uiso   1.00
C1021  C     0.61315   0.27870   0.63346   0.00000  Uiso   1.00
C1022  C     0.64443   0.25207   0.87472   0.00000  Uiso   1.00
C1023  C     0.60760   0.27028   0.87961   0.00000  Uiso   1.00
C1024  C     0.65012   0.22737   0.83352   0.00000  Uiso   1.00
C1025  C     0.54103   0.28664   0.84624   0.00000  Uiso   1.00
C1026  C     0.57748   0.26508   0.84491   0.00000  Uiso   1.00
C1027  C     0.61986   0.22291   0.79780   0.00000  Uiso   1.00
C1028  C     0.58421   0.24135   0.80377   0.00000  Uiso   1.00
C1029  C     0.61110   0.39669   0.99980   0.00000  Uiso   1.00
C1030  C     0.57369   0.41265   0.22053   0.00000  Uiso   1.00
C1031  C     0.57545   0.41282   0.47037   0.00000  Uiso   1.00
C1032  C     0.62219   0.55888   0.38219   0.00000  Uiso   1.00
C1033  C     0.58635   0.57631   0.38383   0.00000  Uiso   1.00
C1034  C     0.58303   0.43839   0.43207   0.00000  Uiso   1.00
C1035  C     0.61993   0.45135   0.17871   0.00000  Uiso   1.00
C1036  C     0.68119   0.54501   0.09317   0.00000  Uiso   1.00
C1037  C     0.64346   0.56273   0.09072   0.00000  Uiso   1.00
C1038  C     0.61319   0.55377   0.12597   0.00000  Uiso   1.00
C1039  C     0.57933   0.57247   0.12541   0.00000  Uiso   1.00
C1040  C     0.68484   0.46856   0.21692   0.00000  Uiso   1.00
C1041  C     0.64560   0.44981   0.21871   0.00000  Uiso   1.00
C1042  C     0.63280   0.57849   0.29465   0.00000  Uiso   1.00
C1043  C     0.63399   0.42921   0.26155   0.00000  Uiso   1.00
C1044  C     0.68458   0.53911   0.33883   0.00000  Uiso   1.00
C1045  C     0.64618   0.56026   0.33907   0.00000  Uiso   1.00
C1046  C     0.58447   0.43304   0.17808   0.00000  Uiso   1.00
C1047  C     0.61858   0.45620   0.42969   0.00000  Uiso   1.00
C1048  C     0.68814   0.46683   0.46538   0.00000  Uiso   1.00
C1049  C     0.64900   0.44724   0.46534   0.00000  Uiso   1.00
C1050  C     0.63679   0.58939   0.05356   0.00000  Uiso   1.00
C1051  C     0.57384   0.59574   0.33991   0.00000  Uiso   1.00
C1052  C     0.59839   0.41125   0.26249   0.00000  Uiso   1.00
C1053  C     0.64608   0.41519   0.00101   0.00000  Uiso   1.00
C1054  C     0.57230   0.59995   0.08823   0.00000  Uiso   1.00
C1055  C     0.59806   0.59838   0.29840   0.00000  Uiso   1.00
C1056  C     0.60767   0.40508   0.76526   0.00000  Uiso   1.00
C1057  C     0.59207   0.58569   0.88564   0.00000  Uiso   1.00
C1058  C     0.57951   0.40774   0.72564   0.00000  Uiso   1.00
C1059  C     0.58175   0.40205   0.96414   0.00000  Uiso   1.00
C1060  C     0.62593   0.56488   0.88388   0.00000  Uiso   1.00
C1061  C     0.58766   0.42974   0.92738   0.00000  Uiso   1.00
C1062  C     0.62496   0.44702   0.68026   0.00000  Uiso   1.00
C1063  C     0.68428   0.54501   0.59071   0.00000  Uiso   1.00
C1064  C     0.64862   0.56848   0.59101   0.00000  Uiso   1.00
C1065  C     0.62267   0.56525   0.63317   0.00000  Uiso   1.00
C1066  C     0.58692   0.58350   0.63481   0.00000  Uiso   1.00
C1067  C     0.68850   0.46524   0.71821   0.00000  Uiso   1.00
C1068  C     0.65162   0.44514   0.71974   0.00000  Uiso   1.00
C1069  C     0.64060   0.58890   0.79905   0.00000  Uiso   1.00
C1070  C     0.64230   0.42332   0.76307   0.00000  Uiso   1.00
C1071  C     0.68772   0.54554   0.84113   0.00000  Uiso   1.00
C1072  C     0.65105   0.56704   0.84196   0.00000  Uiso   1.00
C1073  C     0.58864   0.43058   0.68271   0.00000  Uiso   1.00
C1074  C     0.62134   0.45192   0.93098   0.00000  Uiso   1.00
C1075  C     0.68768   0.46603   0.96763   0.00000  Uiso   1.00
C1076  C     0.65273   0.44331   0.96574   0.00000  Uiso   1.00
C1077  C     0.63921   0.59100   0.55038   0.00000  Uiso   1.00
C1078  C     0.60490   0.40308   0.50399   0.00000  Uiso   1.00
C1079  C     0.64115   0.42033   0.50238   0.00000  Uiso   1.00
C1080  C     0.65161   0.78189   0.46763   0.00000  Uiso   1.00
C1081  C     0.62086   0.78795   0.42991   0.00000  Uiso   1.00
C1082  C     0.61713   0.78564   0.17522   0.00000  Uiso   1.00
C1083  C     0.53853   0.62479   0.08901   0.00000  Uiso   1.00
C1084  C     0.63472   0.76378   0.00436   0.00000  Uiso   1.00
C1085  C     0.57997   0.76918   0.17797   0.00000  Uiso   1.00
C1086  C     0.58130   0.74211   0.46732   0.00000  Uiso   1.00
C1087  C     0.53557   0.72200   0.22088   0.00000  Uiso   1.00
C1088  C     0.56985   0.74820   0.22040   0.00000  Uiso   1.00
C1089  C     0.64272   0.78434   0.21775   0.00000  Uiso   1.00
C1090  C     0.53968   0.62091   0.34220   0.00000  Uiso   1.00
C1091  C     0.59331   0.74838   0.26222   0.00000  Uiso   1.00
C1092  C     0.63018   0.76464   0.26115   0.00000  Uiso   1.00
C1093  C     0.58712   0.76952   0.42994   0.00000  Uiso   1.00
C1094  C     0.54683   0.71751   0.46544   0.00000  Uiso   1.00
C1095  C     0.60093   0.60638   0.05069   0.00000  Uiso   1.00
C1096  C     0.59783   0.74815   0.00910   0.00000  Uiso   1.00
C1097  C     0.62730   0.78167   0.66647   0.00000  Uiso   1.00
C1098  C     0.54062   0.62529   0.59029   0.00000  Uiso   1.00
C1099  C     0.57084   0.75123   0.96828   0.00000  Uiso   1.00
C1100  C     0.59081   0.76112   0.66478   0.00000  Uiso   1.00
C1101  C     0.64390   0.78671   0.96127   0.00000  Uiso   1.00
C1102  C     0.54291   0.71756   0.70927   0.00000  Uiso   1.00
C1103  C     0.57862   0.73996   0.70820   0.00000  Uiso   1.00
C1104  C     0.65134   0.77782   0.70959   0.00000  Uiso   1.00
C1105  C     0.54350   0.62911   0.84324   0.00000  Uiso   1.00
C1106  C     0.60275   0.73892   0.75240   0.00000  Uiso   1.00
C1107  C     0.63902   0.75569   0.75154   0.00000  Uiso   1.00
C1108  C     0.57784   0.77413   0.92812   0.00000  Uiso   1.00
C1109  C     0.61484   0.79089   0.92449   0.00000  Uiso   1.00
C1110  C     0.53764   0.72459   0.96712   0.00000  Uiso   1.00
C1111  C     0.60078   0.60604   0.54920   0.00000  Uiso   1.00
C1112  C     0.57588   0.60338   0.59081   0.00000  Uiso   1.00
C1113  C     0.60758   0.61066   0.80296   0.00000  Uiso   1.00
C1114  C     0.58124   0.60729   0.84566   0.00000  Uiso   1.00
C1115  C     0.60988   0.73603   0.50662   0.00000  Uiso   1.00
C1116  C     0.64382   0.75686   0.50839   0.00000  Uiso   1.00
C1117  C     0.63761   0.92546   0.05264   0.00000  Uiso   1.00
C1118  C     0.60148   0.94351   0.05562   0.00000  Uiso   1.00
C1119  C     0.68182   0.87788   0.08587   0.00000  Uiso   1.00
C1120  C     0.64640   0.89990   0.09065   0.00000  Uiso   1.00
C1121  C     0.53862   0.95821   0.08971   0.00000  Uiso   1.00
C1122  C     0.57438   0.93557   0.09372   0.00000  Uiso   1.00
C1123  C     0.62111   0.89409   0.13132   0.00000  Uiso   1.00
C1124  C     0.58411   0.91086   0.13245   0.00000  Uiso   1.00
C1125  C     0.64164   0.92493   0.30109   0.00000  Uiso   1.00
C1126  C     0.60478   0.94282   0.29746   0.00000  Uiso   1.00
C1127  C     0.68457   0.88058   0.34383   0.00000  Uiso   1.00
C1128  C     0.64913   0.90291   0.34310   0.00000  Uiso   1.00
C1129  C     0.54166   0.96459   0.33613   0.00000  Uiso   1.00
C1130  C     0.57693   0.93913   0.33691   0.00000  Uiso   1.00
C1131  C     0.62124   0.89814   0.38072   0.00000  Uiso   1.00
C1132  C     0.58462   0.91775   0.38044   0.00000  Uiso   1.00
C1133  C     0.68114   0.80451   0.21453   0.00000  Uiso   1.00
C1134  C     0.68751   0.80179   0.46622   0.00000  Uiso   1.00
C1135  C     0.64008   0.92147   0.54252   0.00000  Uiso   1.00
C1136  C     0.60283   0.93951   0.54287   0.00000  Uiso   1.00
C1137  C     0.68596   0.87852   0.58297   0.00000  Uiso   1.00
C1138  C     0.65130   0.89730   0.58248   0.00000  Uiso   1.00
C1139  C     0.54187   0.95632   0.58539   0.00000  Uiso   1.00
C1140  C     0.57584   0.93144   0.58252   0.00000  Uiso   1.00
C1141  C     0.62325   0.88975   0.61900   0.00000  Uiso   1.00
C1142  C     0.58729   0.90871   0.62245   0.00000  Uiso   1.00
C1143  C     0.63559   0.91822   0.79371   0.00000  Uiso   1.00
C1144  C     0.59893   0.93591   0.79278   0.00000  Uiso   1.00
C1145  C     0.68551   0.88048   0.83852   0.00000  Uiso   1.00
C1146  C     0.64726   0.89669   0.83627   0.00000  Uiso   1.00
C1147  C     0.53839   0.95523   0.83609   0.00000  Uiso   1.00
C1148  C     0.57203   0.93163   0.83388   0.00000  Uiso   1.00
C1149  C     0.62015   0.89316   0.87698   0.00000  Uiso   1.00
C1150  C     0.58401   0.91001   0.87517   0.00000  Uiso   1.00
C1151  C     0.68788   0.80145   0.71175   0.00000  Uiso   1.00
C1152  C     0.68112   0.80733   0.95933   0.00000  Uiso   1.00
C1153  C     0.83184   0.07271   0.18326   0.00000  Uiso   1.00
C1154  C     0.86800   0.05548   0.18119   0.00000  Uiso   1.00
C1155  C     0.78982   0.12512   0.21340   0.00000  Uiso   1.00
C1156  C     0.82566   0.10129   0.21748   0.00000  Uiso   1.00
C1157  C     0.93608   0.04492   0.21609   0.00000  Uiso   1.00
C1158  C     0.89737   0.06278   0.21618   0.00000  Uiso   1.00
C1159  C     0.84177   0.08495   0.42081   0.00000  Uiso   1.00
C1160  C     0.87726   0.06541   0.42373   0.00000  Uiso   1.00
C1161  C     0.79454   0.13071   0.45575   0.00000  Uiso   1.00
C1162  C     0.83146   0.10917   0.45999   0.00000  Uiso   1.00
C1163  C     0.93995   0.04859   0.46534   0.00000  Uiso   1.00
C1164  C     0.90246   0.06830   0.46594   0.00000  Uiso   1.00
C1165  C     0.85431   0.10834   0.25459   0.00000  Uiso   1.00
C1166  C     0.88887   0.08862   0.25611   0.00000  Uiso   1.00
C1167  C     0.88402   0.08339   0.00777   0.00000  Uiso   1.00
C1168  C     0.85839   0.11641   0.49924   0.00000  Uiso   1.00
C1169  C     0.84825   0.10206   0.00794   0.00000  Uiso   1.00
C1170  C     0.83924   0.07680   0.66861   0.00000  Uiso   1.00
C1171  C     0.87830   0.06099   0.67232   0.00000  Uiso   1.00
C1172  C     0.79195   0.12387   0.70695   0.00000  Uiso   1.00
C1173  C     0.82886   0.10141   0.70768   0.00000  Uiso   1.00
C1174  C     0.94046   0.04674   0.71383   0.00000  Uiso   1.00
C1175  C     0.90364   0.06669   0.71320   0.00000  Uiso   1.00
C1176  C     0.89263   0.09540   0.50256   0.00000  Uiso   1.00
C1177  C     0.82818   0.06973   0.92989   0.00000  Uiso   1.00
C1178  C     0.86449   0.05144   0.93028   0.00000  Uiso   1.00
C1179  C     0.78765   0.12428   0.96336   0.00000  Uiso   1.00
C1180  C     0.82148   0.09781   0.96759   0.00000  Uiso   1.00
C1181  C     0.93083   0.03929   0.96707   0.00000  Uiso   1.00
C1182  C     0.89324   0.05874   0.96753   0.00000  Uiso   1.00
C1183  C     0.85491   0.10560   0.74992   0.00000  Uiso   1.00
C1184  C     0.89128   0.08899   0.75193   0.00000  Uiso   1.00
C1185  C     0.79051   0.22240   0.33897   0.00000  Uiso   1.00
C1186  C     0.86753   0.38950   0.24340   0.00000  Uiso   1.00
C1187  C     0.87142   0.39080   0.42792   0.00000  Uiso   1.00
C1188  C     0.86945   0.28668   0.12706   0.00000  Uiso   1.00
C1189  C     0.83483   0.26688   0.13031   0.00000  Uiso   1.00
C1190  C     0.88488   0.26127   0.04305   0.00000  Uiso   1.00
C1191  C     0.84952   0.24207   0.04571   0.00000  Uiso   1.00
C1192  C     0.93184   0.30500   0.08606   0.00000  Uiso   1.00
C1193  C     0.89494   0.28497   0.08468   0.00000  Uiso   1.00
C1194  C     0.79082   0.22142   0.08594   0.00000  Uiso   1.00
C1195  C     0.82400   0.24623   0.08595   0.00000  Uiso   1.00
C1196  C     0.93713   0.38487   0.21332   0.00000  Uiso   1.00
C1197  C     0.87041   0.28625   0.37878   0.00000  Uiso   1.00
C1198  C     0.83252   0.26986   0.37569   0.00000  Uiso   1.00
C1199  C     0.89132   0.25118   0.30581   0.00000  Uiso   1.00
C1200  C     0.85535   0.23526   0.30337   0.00000  Uiso   1.00
C1201  C     0.93483   0.29952   0.34134   0.00000  Uiso   1.00
C1202  C     0.89855   0.27806   0.34322   0.00000  Uiso   1.00
C1203  C     0.82659   0.24207   0.34071   0.00000  Uiso   1.00
C1204  C     0.93684   0.37432   0.46460   0.00000  Uiso   1.00
C1205  C     0.89901   0.39500   0.46711   0.00000  Uiso   1.00
C1206  C     0.89910   0.39916   0.71855   0.00000  Uiso   1.00
C1207  C     0.87185   0.28296   0.62400   0.00000  Uiso   1.00
C1208  C     0.83495   0.26732   0.62373   0.00000  Uiso   1.00
C1209  C     0.89054   0.25642   0.54354   0.00000  Uiso   1.00
C1210  C     0.85313   0.24053   0.54080   0.00000  Uiso   1.00
C1211  C     0.93998   0.29795   0.58869   0.00000  Uiso   1.00
C1212  C     0.90013   0.27700   0.58651   0.00000  Uiso   1.00
C1213  C     0.79105   0.22170   0.58032   0.00000  Uiso   1.00
C1214  C     0.82592   0.24511   0.58177   0.00000  Uiso   1.00
C1215  C     0.93663   0.37994   0.71681   0.00000  Uiso   1.00
C1216  C     0.86610   0.28596   0.87669   0.00000  Uiso   1.00
C1217  C     0.82889   0.26974   0.87484   0.00000  Uiso   1.00
C1218  C     0.88700   0.25685   0.79950   0.00000  Uiso   1.00
C1219  C     0.85162   0.23857   0.79922   0.00000  Uiso   1.00
C1220  C     0.93140   0.30302   0.83908   0.00000  Uiso   1.00
C1221  C     0.89512   0.28186   0.83767   0.00000  Uiso   1.00
C1222  C     0.82261   0.24388   0.83695   0.00000  Uiso   1.00
C1223  C     0.93923   0.38209   0.96505   0.00000  Uiso   1.00
C1224  C     0.78804   0.21842   0.83834   0.00000  Uiso   1.00
C1225  C     0.87062   0.39144   0.68232   0.00000  Uiso   1.00
C1226  C     0.87370   0.39589   0.93281   0.00000  Uiso   1.00
C1227  C     0.85631   0.56869   0.05625   0.00000  Uiso   1.00
C1228  C     0.86057   0.45287   0.18261   0.00000  Uiso   1.00
C1229  C     0.84917   0.57704   0.30035   0.00000  Uiso   1.00
C1230  C     0.83340   0.41044   0.24513   0.00000  Uiso   1.00
C1231  C     0.89494   0.43186   0.18095   0.00000  Uiso   1.00
C1232  C     0.83542   0.40927   0.43058   0.00000  Uiso   1.00
C1233  C     0.82397   0.58023   0.34102   0.00000  Uiso   1.00
C1234  C     0.79347   0.45956   0.21180   0.00000  Uiso   1.00
C1235  C     0.82789   0.43931   0.20808   0.00000  Uiso   1.00
C1236  C     0.78942   0.55651   0.34217   0.00000  Uiso   1.00
C1237  C     0.79095   0.55596   0.09621   0.00000  Uiso   1.00
C1238  C     0.82961   0.57623   0.09635   0.00000  Uiso   1.00
C1239  C     0.79335   0.45953   0.46833   0.00000  Uiso   1.00
C1240  C     0.82864   0.43502   0.47010   0.00000  Uiso   1.00
C1241  C     0.89189   0.58633   0.05440   0.00000  Uiso   1.00
C1242  C     0.88480   0.59755   0.29855   0.00000  Uiso   1.00
C1243  C     0.86255   0.45102   0.00279   0.00000  Uiso   1.00
C1244  C     0.89849   0.43281   0.00221   0.00000  Uiso   1.00
C1245  C     0.90042   0.40176   0.21459   0.00000  Uiso   1.00
C1246  C     0.90394   0.40415   0.96751   0.00000  Uiso   1.00
C1247  C     0.82897   0.57337   0.84422   0.00000  Uiso   1.00
C1248  C     0.85579   0.43655   0.50967   0.00000  Uiso   1.00
C1249  C     0.88937   0.42334   0.75949   0.00000  Uiso   1.00
C1250  C     0.79234   0.46209   0.71603   0.00000  Uiso   1.00
C1251  C     0.82746   0.43902   0.71705   0.00000  Uiso   1.00
C1252  C     0.85246   0.57197   0.55171   0.00000  Uiso   1.00
C1253  C     0.78861   0.55433   0.59447   0.00000  Uiso   1.00
C1254  C     0.82479   0.57783   0.59102   0.00000  Uiso   1.00
C1255  C     0.88872   0.59013   0.79806   0.00000  Uiso   1.00
C1256  C     0.85309   0.57056   0.79975   0.00000  Uiso   1.00
C1257  C     0.79440   0.46356   0.97182   0.00000  Uiso   1.00
C1258  C     0.83188   0.44219   0.96911   0.00000  Uiso   1.00
C1259  C     0.79278   0.55132   0.84614   0.00000  Uiso   1.00
C1260  C     0.85254   0.44255   0.75775   0.00000  Uiso   1.00
C1261  C     0.83528   0.41044   0.68217   0.00000  Uiso   1.00
C1262  C     0.83800   0.41473   0.93322   0.00000  Uiso   1.00
C1263  C     0.88860   0.59086   0.54994   0.00000  Uiso   1.00
C1264  C     0.84054   0.59565   0.88659   0.00000  Uiso   1.00
C1265  C     0.89292   0.41958   0.50774   0.00000  Uiso   1.00
C1266  C     0.79168   0.79260   0.46148   0.00000  Uiso   1.00
C1267  C     0.90279   0.61070   0.09613   0.00000  Uiso   1.00
C1268  C     0.83584   0.74969   0.17420   0.00000  Uiso   1.00
C1269  C     0.87632   0.61597   0.13480   0.00000  Uiso   1.00
C1270  C     0.94090   0.62993   0.09256   0.00000  Uiso   1.00
C1271  C     0.89541   0.61870   0.33995   0.00000  Uiso   1.00
C1272  C     0.83947   0.60080   0.13385   0.00000  Uiso   1.00
C1273  C     0.87330   0.73381   0.17378   0.00000  Uiso   1.00
C1274  C     0.82420   0.77061   0.21570   0.00000  Uiso   1.00
C1275  C     0.93507   0.71464   0.21736   0.00000  Uiso   1.00
C1276  C     0.89642   0.73368   0.21822   0.00000  Uiso   1.00
C1277  C     0.93307   0.63801   0.34049   0.00000  Uiso   1.00
C1278  C     0.83656   0.74516   0.42490   0.00000  Uiso   1.00
C1279  C     0.87280   0.72641   0.42622   0.00000  Uiso   1.00
C1280  C     0.82793   0.76979   0.46342   0.00000  Uiso   1.00
C1281  C     0.93787   0.71207   0.46740   0.00000  Uiso   1.00
C1282  C     0.89991   0.73056   0.46725   0.00000  Uiso   1.00
C1283  C     0.84902   0.77318   0.25905   0.00000  Uiso   1.00
C1284  C     0.88476   0.75275   0.26105   0.00000  Uiso   1.00
C1285  C     0.87071   0.62068   0.38180   0.00000  Uiso   1.00
C1286  C     0.78706   0.79137   0.21517   0.00000  Uiso   1.00
C1287  C     0.83465   0.60256   0.38279   0.00000  Uiso   1.00
C1288  C     0.85510   0.77469   0.50182   0.00000  Uiso   1.00
C1289  C     0.87095   0.62083   0.62692   0.00000  Uiso   1.00
C1290  C     0.89690   0.61645   0.58795   0.00000  Uiso   1.00
C1291  C     0.87714   0.61171   0.88480   0.00000  Uiso   1.00
C1292  C     0.88733   0.75787   0.99753   0.00000  Uiso   1.00
C1293  C     0.83476   0.74789   0.67713   0.00000  Uiso   1.00
C1294  C     0.93505   0.63576   0.59060   0.00000  Uiso   1.00
C1295  C     0.90036   0.61113   0.84170   0.00000  Uiso   1.00
C1296  C     0.86950   0.72792   0.67798   0.00000  Uiso   1.00
C1297  C     0.82676   0.77123   0.71692   0.00000  Uiso   1.00
C1298  C     0.93317   0.71148   0.71451   0.00000  Uiso   1.00
C1299  C     0.89577   0.73248   0.71623   0.00000  Uiso   1.00
C1300  C     0.83345   0.60432   0.62846   0.00000  Uiso   1.00
C1301  C     0.93720   0.63346   0.83993   0.00000  Uiso   1.00
C1302  C     0.83017   0.74418   0.92193   0.00000  Uiso   1.00
C1303  C     0.86556   0.72471   0.92142   0.00000  Uiso   1.00
C1304  C     0.82348   0.77056   0.96133   0.00000  Uiso   1.00
C1305  C     0.93247   0.70959   0.96394   0.00000  Uiso   1.00
C1306  C     0.89383   0.73055   0.96136   0.00000  Uiso   1.00
C1307  C     0.85130   0.77235   0.76007   0.00000  Uiso   1.00
C1308  C     0.88693   0.75369   0.75818   0.00000  Uiso   1.00
C1309  C     0.78704   0.79360   0.96068   0.00000  Uiso   1.00
C1310  C     0.79220   0.79503   0.71620   0.00000  Uiso   1.00
C1311  C     0.88826   0.75359   0.50616   0.00000  Uiso   1.00
C1312  C     0.85180   0.77659   0.99736   0.00000  Uiso   1.00
C1313  C     0.87334   0.94382   0.13055   0.00000  Uiso   1.00
C1314  C     0.83831   0.92542   0.13037   0.00000  Uiso   1.00
C1315  C     0.89283   0.90988   0.05585   0.00000  Uiso   1.00
C1316  C     0.85613   0.89392   0.05225   0.00000  Uiso   1.00
C1317  C     0.93558   0.95949   0.09172   0.00000  Uiso   1.00
C1318  C     0.89951   0.93753   0.09234   0.00000  Uiso   1.00
C1319  C     0.78905   0.88669   0.08819   0.00000  Uiso   1.00
C1320  C     0.82758   0.90390   0.08854   0.00000  Uiso   1.00
C1321  C     0.86799   0.95260   0.37637   0.00000  Uiso   1.00
C1322  C     0.83171   0.93470   0.37656   0.00000  Uiso   1.00
C1323  C     0.88662   0.92214   0.29857   0.00000  Uiso   1.00
C1324  C     0.84872   0.90795   0.29499   0.00000  Uiso   1.00
C1325  C     0.93463   0.96589   0.33971   0.00000  Uiso   1.00
C1326  C     0.89587   0.94752   0.33754   0.00000  Uiso   1.00
C1327  C     0.78796   0.88853   0.33681   0.00000  Uiso   1.00
C1328  C     0.82242   0.91178   0.33512   0.00000  Uiso   1.00
C1329  C     0.86338   0.96107   0.62743   0.00000  Uiso   1.00
C1330  C     0.82824   0.94227   0.62769   0.00000  Uiso   1.00
C1331  C     0.88385   0.93094   0.54973   0.00000  Uiso   1.00
C1332  C     0.84867   0.91222   0.55052   0.00000  Uiso   1.00
C1333  C     0.93182   0.97412   0.59312   0.00000  Uiso   1.00
C1334  C     0.89287   0.95544   0.59070   0.00000  Uiso   1.00
C1335  C     0.79128   0.88959   0.59018   0.00000  Uiso   1.00
C1336  C     0.82274   0.91572   0.58993   0.00000  Uiso   1.00
C1337  C     0.87362   0.95072   0.87378   0.00000  Uiso   1.00
C1338  C     0.83607   0.93495   0.87709   0.00000  Uiso   1.00
C1339  C     0.89068   0.92175   0.79589   0.00000  Uiso   1.00
C1340  C     0.85273   0.90608   0.79605   0.00000  Uiso   1.00
C1341  C     0.93682   0.96506   0.83588   0.00000  Uiso   1.00
C1342  C     0.90078   0.94441   0.83607   0.00000  Uiso   1.00
C1343  C     0.78925   0.88948   0.83724   0.00000  Uiso   1.00
C1344  C     0.82571   0.91246   0.83482   0.00000  Uiso   1.00
O1345  O     0.20145   0.14474   0.26196   0.00000  Uiso   1.00
O1346  O     0.02717   0.04122   0.25832   0.00000  Uiso   1.00
O1347  O     0.20384   0.14339   0.42394   0.00000  Uiso   1.00
O1348  O     0.03199   0.03465   0.42639   0.00000  Uiso   1.00
O1349  O     0.20049   0.14295   0.17522   0.00000  Uiso   1.00
O1350  O     0.02829   0.03594   0.16912   0.00000  Uiso   1.00
O1351  O     0.19496   0.15127   0.01246   0.00000  Uiso   1.00
O1352  O     0.02359   0.03946   0.01260   0.00000  Uiso   1.00
O1353  O     0.20841   0.13575   0.76175   0.00000  Uiso   1.00
O1354  O     0.03393   0.03623   0.51115   0.00000  Uiso   1.00
O1355  O     0.03050   0.04024   0.76134   0.00000  Uiso   1.00
O1356  O     0.02926   0.03850   0.92493   0.00000  Uiso   1.00
O1357  O     0.20591   0.14032   0.67407   0.00000  Uiso   1.00
O1358  O     0.03324   0.03516   0.67356   0.00000  Uiso   1.00
O1359  O     0.20272   0.14025   0.92762   0.00000  Uiso   1.00
O1360  O     0.20814   0.13579   0.50963   0.00000  Uiso   1.00
O1361  O     0.19583   0.19726   0.88566   0.00000  Uiso   1.00
O1362  O     0.19898   0.19565   0.79843   0.00000  Uiso   1.00
O1363  O     0.02524   0.37787   0.16893   0.00000  Uiso   1.00
O1364  O     0.20208   0.20564   0.29881   0.00000  Uiso   1.00
O1365  O     0.03026   0.37340   0.41932   0.00000  Uiso   1.00
O1366  O     0.02715   0.30188   0.28747   0.00000  Uiso   1.00
O1367  O     0.02527   0.37375   0.25759   0.00000  Uiso   1.00
O1368  O     0.02744   0.30443   0.37647   0.00000  Uiso   1.00
O1369  O     0.02837   0.30842   0.13821   0.00000  Uiso   1.00
O1370  O     0.02384   0.30167   0.05244   0.00000  Uiso   1.00
O1371  O     0.02983   0.37112   0.00532   0.00000  Uiso   1.00
O1372  O     0.19736   0.20027   0.13497   0.00000  Uiso   1.00
O1373  O     0.20022   0.20215   0.38676   0.00000  Uiso   1.00
O1374  O     0.20034   0.20896   0.04847   0.00000  Uiso   1.00
O1375  O     0.03189   0.30824   0.63929   0.00000  Uiso   1.00
O1376  O     0.02518   0.37699   0.66759   0.00000  Uiso   1.00
O1377  O     0.02288   0.30383   0.88063   0.00000  Uiso   1.00
O1378  O     0.02890   0.37407   0.91905   0.00000  Uiso   1.00
O1379  O     0.02354   0.29972   0.79514   0.00000  Uiso   1.00
O1380  O     0.03362   0.37081   0.75481   0.00000  Uiso   1.00
O1381  O     0.03054   0.37102   0.50704   0.00000  Uiso   1.00
O1382  O     0.03195   0.30195   0.55216   0.00000  Uiso   1.00
O1383  O     0.20382   0.20080   0.64016   0.00000  Uiso   1.00
O1384  O     0.20329   0.20015   0.55383   0.00000  Uiso   1.00
O1385  O     0.20355   0.53456   0.29425   0.00000  Uiso   1.00
O1386  O     0.20120   0.47613   0.25416   0.00000  Uiso   1.00
O1387  O     0.19999   0.53277   0.38017   0.00000  Uiso   1.00
O1388  O     0.20494   0.47146   0.00564   0.00000  Uiso   1.00
O1389  O     0.20158   0.47569   0.41585   0.00000  Uiso   1.00
O1390  O     0.19847   0.52998   0.04436   0.00000  Uiso   1.00
O1391  O     0.19910   0.47711   0.16807   0.00000  Uiso   1.00
O1392  O     0.20214   0.53694   0.13102   0.00000  Uiso   1.00
O1393  O     0.20290   0.47397   0.50368   0.00000  Uiso   1.00
O1394  O     0.19924   0.53300   0.80128   0.00000  Uiso   1.00
O1395  O     0.20062   0.53126   0.89048   0.00000  Uiso   1.00
O1396  O     0.20305   0.47626   0.91800   0.00000  Uiso   1.00
O1397  O     0.19977   0.47816   0.75647   0.00000  Uiso   1.00
O1398  O     0.19551   0.53256   0.54521   0.00000  Uiso   1.00
O1399  O     0.20652   0.47145   0.67048   0.00000  Uiso   1.00
O1400  O     0.20056   0.52977   0.63351   0.00000  Uiso   1.00
O1401  O     0.02819   0.70697   0.41863   0.00000  Uiso   1.00
O1402  O     0.02752   0.71221   0.25721   0.00000  Uiso   1.00
O1403  O     0.02706   0.63764   0.38343   0.00000  Uiso   1.00
O1404  O     0.03382   0.64555   0.14007   0.00000  Uiso   1.00
O1405  O     0.02630   0.64014   0.29576   0.00000  Uiso   1.00
O1406  O     0.02436   0.71274   0.17087   0.00000  Uiso   1.00
O1407  O     0.02800   0.64051   0.05434   0.00000  Uiso   1.00
O1408  O     0.02832   0.70774   0.01201   0.00000  Uiso   1.00
O1409  O     0.02153   0.71101   0.92427   0.00000  Uiso   1.00
O1410  O     0.02902   0.70517   0.76328   0.00000  Uiso   1.00
O1411  O     0.03327   0.64589   0.88755   0.00000  Uiso   1.00
O1412  O     0.02578   0.63707   0.80253   0.00000  Uiso   1.00
O1413  O     0.02841   0.63538   0.55109   0.00000  Uiso   1.00
O1414  O     0.01920   0.71484   0.67722   0.00000  Uiso   1.00
O1415  O     0.02880   0.64249   0.63866   0.00000  Uiso   1.00
O1416  O     0.02928   0.70640   0.50522   0.00000  Uiso   1.00
O1417  O     0.20258   0.81556   0.25213   0.00000  Uiso   1.00
O1418  O     0.02451   0.96767   0.38401   0.00000  Uiso   1.00
O1419  O     0.20300   0.86888   0.28654   0.00000  Uiso   1.00
O1420  O     0.02409   0.96807   0.05056   0.00000  Uiso   1.00
O1421  O     0.19910   0.86813   0.03957   0.00000  Uiso   1.00
O1422  O     0.20155   0.86560   0.37511   0.00000  Uiso   1.00
O1423  O     0.02570   0.96663   0.13769   0.00000  Uiso   1.00
O1424  O     0.20090   0.86819   0.12754   0.00000  Uiso   1.00
O1425  O     0.20114   0.81366   0.16613   0.00000  Uiso   1.00
O1426  O     0.02689   0.97111   0.29827   0.00000  Uiso   1.00
O1427  O     0.19854   0.81465   0.00969   0.00000  Uiso   1.00
O1428  O     0.20035   0.81236   0.41612   0.00000  Uiso   1.00
O1429  O     0.19994   0.80904   0.75418   0.00000  Uiso   1.00
O1430  O     0.02996   0.97309   0.88466   0.00000  Uiso   1.00
O1431  O     0.20011   0.86897   0.79214   0.00000  Uiso   1.00
O1432  O     0.19354   0.81627   0.66932   0.00000  Uiso   1.00
O1433  O     0.02332   0.96641   0.54917   0.00000  Uiso   1.00
O1434  O     0.20146   0.87309   0.53703   0.00000  Uiso   1.00
O1435  O     0.19772   0.86363   0.88119   0.00000  Uiso   1.00
O1436  O     0.03033   0.96564   0.63599   0.00000  Uiso   1.00
O1437  O     0.19935   0.86745   0.62583   0.00000  Uiso   1.00
O1438  O     0.03147   0.97177   0.79709   0.00000  Uiso   1.00
O1439  O     0.20246   0.80525   0.92404   0.00000  Uiso   1.00
O1440  O     0.20319   0.81312   0.50296   0.00000  Uiso   1.00
O1441  O     0.28080   0.13986   0.42299   0.00000  Uiso   1.00
O1442  O     0.45237   0.03639   0.42101   0.00000  Uiso   1.00
O1443  O     0.44739   0.03715   0.25960   0.00000  Uiso   1.00
O1444  O     0.44947   0.03286   0.00260   0.00000  Uiso   1.00
O1445  O     0.45214   0.03712   0.17078   0.00000  Uiso   1.00
O1446  O     0.27910   0.14057   0.16641   0.00000  Uiso   1.00
O1447  O     0.28409   0.14140   0.25473   0.00000  Uiso   1.00
O1448  O     0.28059   0.14561   0.01356   0.00000  Uiso   1.00
O1449  O     0.28157   0.13794   0.51229   0.00000  Uiso   1.00
O1450  O     0.45210   0.03666   0.50821   0.00000  Uiso   1.00
O1451  O     0.45154   0.03900   0.91595   0.00000  Uiso   1.00
O1452  O     0.45626   0.03657   0.75279   0.00000  Uiso   1.00
O1453  O     0.27839   0.13880   0.92718   0.00000  Uiso   1.00
O1454  O     0.45139   0.03290   0.66729   0.00000  Uiso   1.00
O1455  O     0.28268   0.13903   0.67739   0.00000  Uiso   1.00
O1456  O     0.28228   0.14057   0.76465   0.00000  Uiso   1.00
O1457  O     0.27337   0.21477   0.05091   0.00000  Uiso   1.00
O1458  O     0.45172   0.37285   0.43004   0.00000  Uiso   1.00
O1459  O     0.44679   0.31331   0.30914   0.00000  Uiso   1.00
O1460  O     0.27400   0.21216   0.13603   0.00000  Uiso   1.00
O1461  O     0.44954   0.30959   0.13628   0.00000  Uiso   1.00
O1462  O     0.44649   0.31443   0.05204   0.00000  Uiso   1.00
O1463  O     0.44689   0.36422   0.17018   0.00000  Uiso   1.00
O1464  O     0.44733   0.36801   0.25814   0.00000  Uiso   1.00
O1465  O     0.45420   0.30755   0.39699   0.00000  Uiso   1.00
O1466  O     0.27643   0.21054   0.38591   0.00000  Uiso   1.00
O1467  O     0.45667   0.37028   0.01972   0.00000  Uiso   1.00
O1468  O     0.28166   0.21089   0.29692   0.00000  Uiso   1.00
O1469  O     0.27684   0.20559   0.88421   0.00000  Uiso   1.00
O1470  O     0.45064   0.37054   0.51775   0.00000  Uiso   1.00
O1471  O     0.28388   0.20381   0.63611   0.00000  Uiso   1.00
O1472  O     0.45275   0.30909   0.63575   0.00000  Uiso   1.00
O1473  O     0.45297   0.30523   0.80752   0.00000  Uiso   1.00
O1474  O     0.45758   0.30843   0.54654   0.00000  Uiso   1.00
O1475  O     0.28165   0.20453   0.54806   0.00000  Uiso   1.00
O1476  O     0.45220   0.36805   0.68150   0.00000  Uiso   1.00
O1477  O     0.45078   0.36645   0.76787   0.00000  Uiso   1.00
O1478  O     0.44661   0.30953   0.89517   0.00000  Uiso   1.00
O1479  O     0.45138   0.36636   0.93246   0.00000  Uiso   1.00
O1480  O     0.27461   0.20798   0.79780   0.00000  Uiso   1.00
O1481  O     0.27989   0.47190   0.25542   0.00000  Uiso   1.00
O1482  O     0.28022   0.53861   0.29649   0.00000  Uiso   1.00
O1483  O     0.27990   0.47123   0.00980   0.00000  Uiso   1.00
O1484  O     0.28178   0.47279   0.41862   0.00000  Uiso   1.00
O1485  O     0.27783   0.54051   0.13014   0.00000  Uiso   1.00
O1486  O     0.27661   0.46935   0.16916   0.00000  Uiso   1.00
O1487  O     0.27651   0.54196   0.04266   0.00000  Uiso   1.00
O1488  O     0.27578   0.54393   0.38304   0.00000  Uiso   1.00
O1489  O     0.27541   0.47028   0.76047   0.00000  Uiso   1.00
O1490  O     0.27750   0.53987   0.79465   0.00000  Uiso   1.00
O1491  O     0.28438   0.47421   0.92288   0.00000  Uiso   1.00
O1492  O     0.27481   0.54481   0.54085   0.00000  Uiso   1.00
O1493  O     0.27513   0.54381   0.87998   0.00000  Uiso   1.00
O1494  O     0.28303   0.47177   0.67351   0.00000  Uiso   1.00
O1495  O     0.27603   0.54436   0.62964   0.00000  Uiso   1.00
O1496  O     0.28114   0.47675   0.50727   0.00000  Uiso   1.00
O1497  O     0.44603   0.69364   0.25670   0.00000  Uiso   1.00
O1498  O     0.45079   0.69876   0.42333   0.00000  Uiso   1.00
O1499  O     0.45278   0.64053   0.38502   0.00000  Uiso   1.00
O1500  O     0.44763   0.64929   0.04618   0.00000  Uiso   1.00
O1501  O     0.45410   0.63545   0.29874   0.00000  Uiso   1.00
O1502  O     0.44789   0.69594   0.16977   0.00000  Uiso   1.00
O1503  O     0.45097   0.64024   0.13312   0.00000  Uiso   1.00
O1504  O     0.44768   0.70304   0.00906   0.00000  Uiso   1.00
O1505  O     0.45009   0.69952   0.75866   0.00000  Uiso   1.00
O1506  O     0.45112   0.70710   0.92198   0.00000  Uiso   1.00
O1507  O     0.45006   0.69741   0.67077   0.00000  Uiso   1.00
O1508  O     0.44899   0.64468   0.88282   0.00000  Uiso   1.00
O1509  O     0.44911   0.64502   0.79560   0.00000  Uiso   1.00
O1510  O     0.44786   0.64372   0.63226   0.00000  Uiso   1.00
O1511  O     0.45356   0.70521   0.50924   0.00000  Uiso   1.00
O1512  O     0.45026   0.64375   0.54524   0.00000  Uiso   1.00
O1513  O     0.45106   0.97831   0.38049   0.00000  Uiso   1.00
O1514  O     0.44985   0.97893   0.29351   0.00000  Uiso   1.00
O1515  O     0.27568   0.87921   0.13069   0.00000  Uiso   1.00
O1516  O     0.27682   0.87621   0.38046   0.00000  Uiso   1.00
O1517  O     0.45208   0.97764   0.13121   0.00000  Uiso   1.00
O1518  O     0.28284   0.87214   0.29185   0.00000  Uiso   1.00
O1519  O     0.27699   0.87834   0.04360   0.00000  Uiso   1.00
O1520  O     0.44444   0.97777   0.04313   0.00000  Uiso   1.00
O1521  O     0.27646   0.80295   0.24989   0.00000  Uiso   1.00
O1522  O     0.27719   0.80256   0.41393   0.00000  Uiso   1.00
O1523  O     0.27842   0.80488   0.16240   0.00000  Uiso   1.00
O1524  O     0.27263   0.80297   0.00686   0.00000  Uiso   1.00
O1525  O     0.27627   0.80101   0.91865   0.00000  Uiso   1.00
O1526  O     0.27447   0.87749   0.79302   0.00000  Uiso   1.00
O1527  O     0.45030   0.97498   0.54270   0.00000  Uiso   1.00
O1528  O     0.27658   0.87145   0.88037   0.00000  Uiso   1.00
O1529  O     0.44678   0.97955   0.79389   0.00000  Uiso   1.00
O1530  O     0.27919   0.87229   0.63232   0.00000  Uiso   1.00
O1531  O     0.44743   0.97696   0.88126   0.00000  Uiso   1.00
O1532  O     0.44845   0.97435   0.62975   0.00000  Uiso   1.00
O1533  O     0.27748   0.87444   0.54480   0.00000  Uiso   1.00
O1534  O     0.28306   0.81105   0.50121   0.00000  Uiso   1.00
O1535  O     0.27126   0.80204   0.66597   0.00000  Uiso   1.00
O1536  O     0.28091   0.81238   0.75187   0.00000  Uiso   1.00
O1537  O     0.69822   0.14385   0.00795   0.00000  Uiso   1.00
O1538  O     0.69960   0.15079   0.24945   0.00000  Uiso   1.00
O1539  O     0.53082   0.03881   0.41795   0.00000  Uiso   1.00
O1540  O     0.52582   0.04677   0.25332   0.00000  Uiso   1.00
O1541  O     0.52801   0.03606   0.00610   0.00000  Uiso   1.00
O1542  O     0.70403   0.13959   0.41866   0.00000  Uiso   1.00
O1543  O     0.69782   0.14625   0.16321   0.00000  Uiso   1.00
O1544  O     0.52862   0.04296   0.16574   0.00000  Uiso   1.00
O1545  O     0.70072   0.19952   0.12792   0.00000  Uiso   1.00
O1546  O     0.53299   0.03998   0.75531   0.00000  Uiso   1.00
O1547  O     0.52861   0.03812   0.50670   0.00000  Uiso   1.00
O1548  O     0.70108   0.13997   0.91916   0.00000  Uiso   1.00
O1549  O     0.53066   0.03636   0.91867   0.00000  Uiso   1.00
O1550  O     0.70157   0.14474   0.74394   0.00000  Uiso   1.00
O1551  O     0.69887   0.14955   0.65895   0.00000  Uiso   1.00
O1552  O     0.53317   0.03616   0.66756   0.00000  Uiso   1.00
O1553  O     0.70295   0.14203   0.50577   0.00000  Uiso   1.00
O1554  O     0.69879   0.19551   0.78545   0.00000  Uiso   1.00
O1555  O     0.69971   0.19371   0.87438   0.00000  Uiso   1.00
O1556  O     0.52992   0.30899   0.38973   0.00000  Uiso   1.00
O1557  O     0.53054   0.36972   0.01140   0.00000  Uiso   1.00
O1558  O     0.52555   0.30846   0.30059   0.00000  Uiso   1.00
O1559  O     0.52808   0.37674   0.42563   0.00000  Uiso   1.00
O1560  O     0.52614   0.30315   0.15051   0.00000  Uiso   1.00
O1561  O     0.52615   0.37552   0.17676   0.00000  Uiso   1.00
O1562  O     0.52212   0.37869   0.26336   0.00000  Uiso   1.00
O1563  O     0.52765   0.30078   0.06368   0.00000  Uiso   1.00
O1564  O     0.69570   0.20255   0.37470   0.00000  Uiso   1.00
O1565  O     0.69967   0.20301   0.28484   0.00000  Uiso   1.00
O1566  O     0.69989   0.20388   0.04139   0.00000  Uiso   1.00
O1567  O     0.52459   0.29493   0.88983   0.00000  Uiso   1.00
O1568  O     0.52899   0.30064   0.80231   0.00000  Uiso   1.00
O1569  O     0.52895   0.37752   0.51297   0.00000  Uiso   1.00
O1570  O     0.53050   0.37356   0.68259   0.00000  Uiso   1.00
O1571  O     0.52845   0.36956   0.92439   0.00000  Uiso   1.00
O1572  O     0.53421   0.31096   0.63980   0.00000  Uiso   1.00
O1573  O     0.52991   0.37158   0.76980   0.00000  Uiso   1.00
O1574  O     0.70468   0.20325   0.62905   0.00000  Uiso   1.00
O1575  O     0.53548   0.31262   0.55262   0.00000  Uiso   1.00
O1576  O     0.70032   0.20166   0.54321   0.00000  Uiso   1.00
O1577  O     0.70248   0.47765   0.01135   0.00000  Uiso   1.00
O1578  O     0.70097   0.53271   0.38111   0.00000  Uiso   1.00
O1579  O     0.70414   0.47721   0.42269   0.00000  Uiso   1.00
O1580  O     0.70052   0.52892   0.29596   0.00000  Uiso   1.00
O1581  O     0.70266   0.47658   0.25924   0.00000  Uiso   1.00
O1582  O     0.69788   0.53338   0.05216   0.00000  Uiso   1.00
O1583  O     0.69660   0.48173   0.17450   0.00000  Uiso   1.00
O1584  O     0.69773   0.53829   0.13557   0.00000  Uiso   1.00
O1585  O     0.70471   0.53871   0.88437   0.00000  Uiso   1.00
O1586  O     0.70485   0.47485   0.92456   0.00000  Uiso   1.00
O1587  O     0.69623   0.52843   0.79788   0.00000  Uiso   1.00
O1588  O     0.70430   0.47659   0.76009   0.00000  Uiso   1.00
O1589  O     0.70076   0.53294   0.54720   0.00000  Uiso   1.00
O1590  O     0.70136   0.47520   0.67384   0.00000  Uiso   1.00
O1591  O     0.70021   0.53587   0.63482   0.00000  Uiso   1.00
O1592  O     0.70314   0.47594   0.51076   0.00000  Uiso   1.00
O1593  O     0.53117   0.70808   0.42224   0.00000  Uiso   1.00
O1594  O     0.52335   0.70712   0.26259   0.00000  Uiso   1.00
O1595  O     0.52907   0.63558   0.38520   0.00000  Uiso   1.00
O1596  O     0.52706   0.63893   0.04519   0.00000  Uiso   1.00
O1597  O     0.52706   0.63490   0.29829   0.00000  Uiso   1.00
O1598  O     0.52580   0.70816   0.17690   0.00000  Uiso   1.00
O1599  O     0.52668   0.63764   0.13402   0.00000  Uiso   1.00
O1600  O     0.52302   0.71332   0.01091   0.00000  Uiso   1.00
O1601  O     0.52876   0.70968   0.92288   0.00000  Uiso   1.00
O1602  O     0.52833   0.70747   0.75390   0.00000  Uiso   1.00
O1603  O     0.53208   0.64325   0.88496   0.00000  Uiso   1.00
O1604  O     0.53006   0.63900   0.79774   0.00000  Uiso   1.00
O1605  O     0.52899   0.70592   0.66657   0.00000  Uiso   1.00
O1606  O     0.52424   0.63280   0.63339   0.00000  Uiso   1.00
O1607  O     0.52919   0.63670   0.54679   0.00000  Uiso   1.00
O1608  O     0.53490   0.70207   0.50833   0.00000  Uiso   1.00
O1609  O     0.52637   0.97377   0.38214   0.00000  Uiso   1.00
O1610  O     0.69725   0.80998   0.16912   0.00000  Uiso   1.00
O1611  O     0.52211   0.96789   0.04641   0.00000  Uiso   1.00
O1612  O     0.69526   0.86749   0.04145   0.00000  Uiso   1.00
O1613  O     0.69582   0.81707   0.25750   0.00000  Uiso   1.00
O1614  O     0.69886   0.86761   0.38661   0.00000  Uiso   1.00
O1615  O     0.52940   0.97609   0.13197   0.00000  Uiso   1.00
O1616  O     0.69841   0.86768   0.12960   0.00000  Uiso   1.00
O1617  O     0.69484   0.81938   0.00328   0.00000  Uiso   1.00
O1618  O     0.52820   0.97667   0.29380   0.00000  Uiso   1.00
O1619  O     0.69936   0.87105   0.29935   0.00000  Uiso   1.00
O1620  O     0.70181   0.81011   0.42220   0.00000  Uiso   1.00
O1621  O     0.52655   0.96828   0.88170   0.00000  Uiso   1.00
O1622  O     0.69676   0.81399   0.91270   0.00000  Uiso   1.00
O1623  O     0.70488   0.81004   0.66804   0.00000  Uiso   1.00
O1624  O     0.52938   0.97142   0.54233   0.00000  Uiso   1.00
O1625  O     0.70353   0.86843   0.53956   0.00000  Uiso   1.00
O1626  O     0.70042   0.87223   0.88198   0.00000  Uiso   1.00
O1627  O     0.52486   0.96433   0.62859   0.00000  Uiso   1.00
O1628  O     0.70022   0.86910   0.62767   0.00000  Uiso   1.00
O1629  O     0.52564   0.96734   0.79355   0.00000  Uiso   1.00
O1630  O     0.70090   0.86814   0.79495   0.00000  Uiso   1.00
O1631  O     0.70005   0.81432   0.75512   0.00000  Uiso   1.00
O1632  O     0.70186   0.81539   0.51031   0.00000  Uiso   1.00
O1633  O     0.94572   0.02695   0.01107   0.00000  Uiso   1.00
O1634  O     0.95204   0.03361   0.42300   0.00000  Uiso   1.00
O1635  O     0.95096   0.03502   0.26092   0.00000  Uiso   1.00
O1636  O     0.78084   0.13988   0.41033   0.00000  Uiso   1.00
O1637  O     0.95051   0.03315   0.17390   0.00000  Uiso   1.00
O1638  O     0.77385   0.13255   0.16763   0.00000  Uiso   1.00
O1639  O     0.78076   0.14429   0.25275   0.00000  Uiso   1.00
O1640  O     0.77922   0.14244   0.00468   0.00000  Uiso   1.00
O1641  O     0.78083   0.14483   0.49838   0.00000  Uiso   1.00
O1642  O     0.95457   0.03655   0.75864   0.00000  Uiso   1.00
O1643  O     0.95669   0.04049   0.50810   0.00000  Uiso   1.00
O1644  O     0.77097   0.13075   0.91898   0.00000  Uiso   1.00
O1645  O     0.94785   0.03402   0.92337   0.00000  Uiso   1.00
O1646  O     0.95403   0.03343   0.67254   0.00000  Uiso   1.00
O1647  O     0.77761   0.13549   0.66416   0.00000  Uiso   1.00
O1648  O     0.77997   0.13753   0.75015   0.00000  Uiso   1.00
O1649  O     0.95094   0.31058   0.38506   0.00000  Uiso   1.00
O1650  O     0.94969   0.31034   0.29629   0.00000  Uiso   1.00
O1651  O     0.77452   0.21488   0.04173   0.00000  Uiso   1.00
O1652  O     0.78091   0.20502   0.12919   0.00000  Uiso   1.00
O1653  O     0.77720   0.21171   0.29522   0.00000  Uiso   1.00
O1654  O     0.94420   0.31809   0.13052   0.00000  Uiso   1.00
O1655  O     0.94989   0.31246   0.04356   0.00000  Uiso   1.00
O1656  O     0.95323   0.36719   0.41998   0.00000  Uiso   1.00
O1657  O     0.95528   0.38022   0.16996   0.00000  Uiso   1.00
O1658  O     0.94930   0.36869   0.25636   0.00000  Uiso   1.00
O1659  O     0.95206   0.36937   0.00743   0.00000  Uiso   1.00
O1660  O     0.77924   0.20743   0.38214   0.00000  Uiso   1.00
O1661  O     0.77939   0.20768   0.62343   0.00000  Uiso   1.00
O1662  O     0.94742   0.31343   0.79482   0.00000  Uiso   1.00
O1663  O     0.95147   0.31103   0.63198   0.00000  Uiso   1.00
O1664  O     0.95246   0.36336   0.50893   0.00000  Uiso   1.00
O1665  O     0.95699   0.30649   0.54471   0.00000  Uiso   1.00
O1666  O     0.95187   0.37012   0.91939   0.00000  Uiso   1.00
O1667  O     0.95221   0.36979   0.67225   0.00000  Uiso   1.00
O1668  O     0.95291   0.37005   0.76098   0.00000  Uiso   1.00
O1669  O     0.94873   0.31354   0.88124   0.00000  Uiso   1.00
O1670  O     0.77711   0.20310   0.88025   0.00000  Uiso   1.00
O1671  O     0.77658   0.21308   0.53516   0.00000  Uiso   1.00
O1672  O     0.77501   0.20958   0.79362   0.00000  Uiso   1.00
O1673  O     0.77532   0.47099   0.16977   0.00000  Uiso   1.00
O1674  O     0.78202   0.47113   0.25792   0.00000  Uiso   1.00
O1675  O     0.78242   0.47549   0.01581   0.00000  Uiso   1.00
O1676  O     0.77472   0.54582   0.29691   0.00000  Uiso   1.00
O1677  O     0.77856   0.54222   0.13856   0.00000  Uiso   1.00
O1678  O     0.77708   0.54607   0.05203   0.00000  Uiso   1.00
O1679  O     0.77970   0.46852   0.42433   0.00000  Uiso   1.00
O1680  O     0.77987   0.54185   0.38631   0.00000  Uiso   1.00
O1681  O     0.78146   0.47473   0.51044   0.00000  Uiso   1.00
O1682  O     0.77722   0.47225   0.75872   0.00000  Uiso   1.00
O1683  O     0.77707   0.53924   0.80273   0.00000  Uiso   1.00
O1684  O     0.77883   0.47408   0.67285   0.00000  Uiso   1.00
O1685  O     0.77753   0.54054   0.63854   0.00000  Uiso   1.00
O1686  O     0.77456   0.54381   0.55101   0.00000  Uiso   1.00
O1687  O     0.78355   0.53880   0.88948   0.00000  Uiso   1.00
O1688  O     0.77915   0.47369   0.92971   0.00000  Uiso   1.00
O1689  O     0.95058   0.70723   0.26127   0.00000  Uiso   1.00
O1690  O     0.95128   0.69979   0.42376   0.00000  Uiso   1.00
O1691  O     0.95395   0.63961   0.04768   0.00000  Uiso   1.00
O1692  O     0.94654   0.69873   0.00748   0.00000  Uiso   1.00
O1693  O     0.94782   0.70234   0.17442   0.00000  Uiso   1.00
O1694  O     0.94968   0.64301   0.38580   0.00000  Uiso   1.00
O1695  O     0.94714   0.65106   0.29682   0.00000  Uiso   1.00
O1696  O     0.95453   0.64333   0.13488   0.00000  Uiso   1.00
O1697  O     0.95064   0.70298   0.75940   0.00000  Uiso   1.00
O1698  O     0.94984   0.70174   0.91949   0.00000  Uiso   1.00
O1699  O     0.95156   0.64396   0.88266   0.00000  Uiso   1.00
O1700  O     0.94674   0.70208   0.67128   0.00000  Uiso   1.00
O1701  O     0.95411   0.70128   0.51032   0.00000  Uiso   1.00
O1702  O     0.95010   0.64384   0.79431   0.00000  Uiso   1.00
O1703  O     0.95069   0.64407   0.63539   0.00000  Uiso   1.00
O1704  O     0.95232   0.64517   0.54734   0.00000  Uiso   1.00
O1705  O     0.77525   0.87626   0.29225   0.00000  Uiso   1.00
O1706  O     0.77697   0.80971   0.00320   0.00000  Uiso   1.00
O1707  O     0.77350   0.87653   0.37890   0.00000  Uiso   1.00
O1708  O     0.94980   0.97865   0.29743   0.00000  Uiso   1.00
O1709  O     0.77803   0.86924   0.13013   0.00000  Uiso   1.00
O1710  O     0.94871   0.97372   0.13351   0.00000  Uiso   1.00
O1711  O     0.94645   0.97700   0.38527   0.00000  Uiso   1.00
O1712  O     0.77238   0.88003   0.04505   0.00000  Uiso   1.00
O1713  O     0.94910   0.97142   0.04629   0.00000  Uiso   1.00
O1714  O     0.78025   0.80531   0.41582   0.00000  Uiso   1.00
O1715  O     0.77515   0.80639   0.25801   0.00000  Uiso   1.00
O1716  O     0.77447   0.80314   0.17034   0.00000  Uiso   1.00
O1717  O     0.78138   0.80771   0.50615   0.00000  Uiso   1.00
O1718  O     0.95089   0.97581   0.87970   0.00000  Uiso   1.00
O1719  O     0.95178   0.97699   0.79385   0.00000  Uiso   1.00
O1720  O     0.77875   0.87746   0.63425   0.00000  Uiso   1.00
O1721  O     0.77674   0.87775   0.87948   0.00000  Uiso   1.00
O1722  O     0.95133   0.97630   0.63622   0.00000  Uiso   1.00
O1723  O     0.77725   0.87577   0.79387   0.00000  Uiso   1.00
O1724  O     0.77617   0.87941   0.54635   0.00000  Uiso   1.00
O1725  O     0.94812   0.98507   0.55165   0.00000  Uiso   1.00
O1726  O     0.77734   0.80595   0.67189   0.00000  Uiso   1.00
O1727  O     0.77189   0.80397   0.91612   0.00000  Uiso   1.00
O1728  O     0.78013   0.80860   0.75835   0.00000  Uiso   1.00
O1729  O     0.24798   0.15493   0.08874   0.00000  Uiso   1.00
O1730  O     0.24846   0.15423   0.34126   0.00000  Uiso   1.00
O1731  O     0.24561   0.19518   0.46889   0.00000  Uiso   1.00
O1732  O     0.24594   0.19385   0.21265   0.00000  Uiso   1.00
O1733  O     0.00103   0.02530   0.34358   0.00000  Uiso   1.00
O1734  O     0.24772   0.19330   0.71870   0.00000  Uiso   1.00
O1735  O     0.00543   0.02805   0.59164   0.00000  Uiso   1.00
O1736  O     0.24730   0.19808   0.96570   0.00000  Uiso   1.00
O1737  O     0.00394   0.31630   0.46354   0.00000  Uiso   1.00
O1738  O     0.00196   0.36139   0.83714   0.00000  Uiso   1.00
O1739  O     0.00112   0.31990   0.71392   0.00000  Uiso   1.00
O1740  O     0.24439   0.52661   0.46167   0.00000  Uiso   1.00
O1741  O     0.24919   0.48511   0.08867   0.00000  Uiso   1.00
O1742  O     0.24753   0.52764   0.71320   0.00000  Uiso   1.00
O1743  O     0.24954   0.48551   0.58777   0.00000  Uiso   1.00
O1744  O     0.24892   0.52662   0.96873   0.00000  Uiso   1.00
O1745  O     0.00279   0.65039   0.46649   0.00000  Uiso   1.00
O1746  O     0.00359   0.69448   0.58940   0.00000  Uiso   1.00
O1747  O     0.00525   0.65334   0.71637   0.00000  Uiso   1.00
O1748  O     0.24491   0.86066   0.70967   0.00000  Uiso   1.00
O1749  O     0.24789   0.81684   0.83527   0.00000  Uiso   1.00
O1750  O     0.24867   0.82093   0.58366   0.00000  Uiso   1.00
O1751  O     0.00006   0.98158   0.71695   0.00000  Uiso   1.00
O1752  O     0.49975   0.03072   0.08589   0.00000  Uiso   1.00
O1753  O     0.49939   0.03201   0.33859   0.00000  Uiso   1.00
O1754  O     0.25081   0.15157   0.84171   0.00000  Uiso   1.00
O1755  O     0.25267   0.15250   0.59247   0.00000  Uiso   1.00
O1756  O     0.49069   0.36309   0.34483   0.00000  Uiso   1.00
O1757  O     0.48905   0.31814   0.22212   0.00000  Uiso   1.00
O1758  O     0.49969   0.35873   0.09996   0.00000  Uiso   1.00
O1759  O     0.49502   0.31448   0.72087   0.00000  Uiso   1.00
O1760  O     0.49739   0.36327   0.59928   0.00000  Uiso   1.00
O1761  O     0.49394   0.35460   0.84782   0.00000  Uiso   1.00
O1762  O     0.25081   0.52383   0.21529   0.00000  Uiso   1.00
O1763  O     0.25236   0.48315   0.33846   0.00000  Uiso   1.00
O1764  O     0.25066   0.48421   0.83794   0.00000  Uiso   1.00
O1765  O     0.49961   0.69132   0.09117   0.00000  Uiso   1.00
O1766  O     0.49908   0.69039   0.34143   0.00000  Uiso   1.00
O1767  O     0.49766   0.65005   0.46765   0.00000  Uiso   1.00
O1768  O     0.49846   0.69525   0.59002   0.00000  Uiso   1.00
O1769  O     0.25465   0.86471   0.20701   0.00000  Uiso   1.00
O1770  O     0.49927   0.98855   0.21188   0.00000  Uiso   1.00
O1771  O     0.25408   0.82142   0.08538   0.00000  Uiso   1.00
O1772  O     0.49689   0.98585   0.46414   0.00000  Uiso   1.00
O1773  O     0.25076   0.82057   0.33303   0.00000  Uiso   1.00
O1774  O     0.25031   0.86313   0.45627   0.00000  Uiso   1.00
O1775  O     0.49702   0.98609   0.71476   0.00000  Uiso   1.00
O1776  O     0.49855   0.98247   0.96185   0.00000  Uiso   1.00
O1777  O     0.25192   0.85983   0.96040   0.00000  Uiso   1.00
O1778  O     0.74276   0.15345   0.33100   0.00000  Uiso   1.00
O1779  O     0.74286   0.19695   0.45802   0.00000  Uiso   1.00
O1780  O     0.50168   0.02602   0.58639   0.00000  Uiso   1.00
O1781  O     0.74708   0.19322   0.95401   0.00000  Uiso   1.00
O1782  O     0.50086   0.02469   0.83611   0.00000  Uiso   1.00
O1783  O     0.50253   0.32402   0.47204   0.00000  Uiso   1.00
O1784  O     0.50161   0.31565   0.97500   0.00000  Uiso   1.00
O1785  O     0.74854   0.52961   0.46565   0.00000  Uiso   1.00
O1786  O     0.74498   0.48722   0.09291   0.00000  Uiso   1.00
O1787  O     0.74545   0.52799   0.97014   0.00000  Uiso   1.00
O1788  O     0.74918   0.48546   0.59287   0.00000  Uiso   1.00
O1789  O     0.74883   0.52720   0.71650   0.00000  Uiso   1.00
O1790  O     0.74960   0.48517   0.84385   0.00000  Uiso   1.00
O1791  O     0.50345   0.64922   0.21370   0.00000  Uiso   1.00
O1792  O     0.50045   0.69542   0.83558   0.00000  Uiso   1.00
O1793  O     0.50128   0.64910   0.71351   0.00000  Uiso   1.00
O1794  O     0.50077   0.65313   0.96206   0.00000  Uiso   1.00
O1795  O     0.74770   0.86136   0.21316   0.00000  Uiso   1.00
O1796  O     0.74663   0.82004   0.08931   0.00000  Uiso   1.00
O1797  O     0.74655   0.82104   0.83293   0.00000  Uiso   1.00
O1798  O     0.74816   0.86345   0.71039   0.00000  Uiso   1.00
O1799  O     0.99541   0.02300   0.09254   0.00000  Uiso   1.00
O1800  O     0.75303   0.19653   0.20661   0.00000  Uiso   1.00
O1801  O     0.75238   0.15450   0.08162   0.00000  Uiso   1.00
O1802  O     0.75105   0.14938   0.83127   0.00000  Uiso   1.00
O1803  O     0.75334   0.19532   0.70763   0.00000  Uiso   1.00
O1804  O     0.99801   0.02611   0.84308   0.00000  Uiso   1.00
O1805  O     0.75391   0.15139   0.57875   0.00000  Uiso   1.00
O1806  O     0.99907   0.36029   0.33665   0.00000  Uiso   1.00
O1807  O     0.99911   0.36149   0.08415   0.00000  Uiso   1.00
O1808  O     0.99379   0.31852   0.21331   0.00000  Uiso   1.00
O1809  O     0.99803   0.31925   0.96475   0.00000  Uiso   1.00
O1810  O     0.99967   0.36028   0.58695   0.00000  Uiso   1.00
O1811  O     0.75319   0.52606   0.21427   0.00000  Uiso   1.00
O1812  O     0.75626   0.48803   0.33940   0.00000  Uiso   1.00
O1813  O     0.99873   0.69413   0.34195   0.00000  Uiso   1.00
O1814  O     0.99558   0.65396   0.21594   0.00000  Uiso   1.00
O1815  O     0.99206   0.69413   0.09058   0.00000  Uiso   1.00
O1816  O     0.99806   0.65108   0.96602   0.00000  Uiso   1.00
O1817  O     0.99928   0.69409   0.83841   0.00000  Uiso   1.00
O1818  O     0.99895   0.98188   0.46761   0.00000  Uiso   1.00
O1819  O     0.75666   0.86139   0.46083   0.00000  Uiso   1.00
O1820  O     0.75011   0.81973   0.33992   0.00000  Uiso   1.00
O1821  O     0.99421   0.98137   0.21916   0.00000  Uiso   1.00
O1822  O     0.75049   0.86249   0.96243   0.00000  Uiso   1.00
O1823  O     0.99865   0.98007   0.96461   0.00000  Uiso   1.00
O1824  O     0.75610   0.81840   0.58656   0.00000  Uiso   1.00
