data_final_Cl-Co-SABVOH01
_audit_creation_date              2022-12-15
_audit_creation_method            'Materials Studio'
_symmetry_space_group_name_H-M    'P1'
_symmetry_Int_Tables_number       1
_symmetry_cell_setting            triclinic
loop_
_symmetry_equiv_pos_as_xyz
  x,y,z
_cell_length_a                    31.8466
_cell_length_b                    34.4177
_cell_length_c                    24.6420
_cell_angle_alpha                 90.0000
_cell_angle_beta                  90.0000
_cell_angle_gamma                 90.0000
loop_
_atom_site_label
_atom_site_type_symbol
_atom_site_fract_x
_atom_site_fract_y
_atom_site_fract_z
_atom_site_U_iso_or_equiv
_atom_site_adp_type
_atom_site_occupancy
Co1    Co    0.22292   0.16495   0.12172   0.00000  Uiso   1.00
Co2    Co    0.22331   0.16621   0.24660   0.00000  Uiso   1.00
Co3    Co    0.22602   0.16530   0.37043   0.00000  Uiso   1.00
Co4    Co    0.22404   0.16731   0.49408   0.00000  Uiso   1.00
Co5    Co    0.00143   0.01311   0.02763   0.00000  Uiso   1.00
Co6    Co    0.00535   0.01173   0.27799   0.00000  Uiso   1.00
Co7    Co    0.00335   0.01226   0.15383   0.00000  Uiso   1.00
Co8    Co    0.00482   0.01149   0.40146   0.00000  Uiso   1.00
Co9    Co    0.22446   0.16653   0.61942   0.00000  Uiso   1.00
Co10   Co    0.22556   0.16749   0.74454   0.00000  Uiso   1.00
Co11   Co    0.22607   0.16814   0.86913   0.00000  Uiso   1.00
Co12   Co    0.00142   0.01379   0.90224   0.00000  Uiso   1.00
Co13   Co    0.22421   0.16943   0.99429   0.00000  Uiso   1.00
Co14   Co    0.00199   0.01264   0.77632   0.00000  Uiso   1.00
Co15   Co    0.00425   0.01300   0.52653   0.00000  Uiso   1.00
Co16   Co    0.00229   0.01352   0.65317   0.00000  Uiso   1.00
Co17   Co    0.24915   0.51808   0.04250   0.00000  Uiso   1.00
Co18   Co    0.24778   0.51835   0.41668   0.00000  Uiso   1.00
Co19   Co    0.24881   0.51572   0.16628   0.00000  Uiso   1.00
Co20   Co    0.24809   0.51986   0.91462   0.00000  Uiso   1.00
Co21   Co    0.24954   0.51954   0.53941   0.00000  Uiso   1.00
Co22   Co    0.24616   0.51828   0.79024   0.00000  Uiso   1.00
Co23   Co    0.24745   0.51883   0.66546   0.00000  Uiso   1.00
Co24   Co    0.23230   0.83109   0.04976   0.00000  Uiso   1.00
Co25   Co    0.23323   0.83154   0.17573   0.00000  Uiso   1.00
Co26   Co    0.23315   0.83234   0.30056   0.00000  Uiso   1.00
Co27   Co    0.23142   0.83130   0.42483   0.00000  Uiso   1.00
Co28   Co    0.23271   0.83154   0.55071   0.00000  Uiso   1.00
Co29   Co    0.23196   0.83223   0.67584   0.00000  Uiso   1.00
Co30   Co    0.23168   0.83217   0.79968   0.00000  Uiso   1.00
Co31   Co    0.22984   0.83265   0.92381   0.00000  Uiso   1.00
Co32   Co    0.48552   0.01270   0.14941   0.00000  Uiso   1.00
Co33   Co    0.48431   0.01189   0.27278   0.00000  Uiso   1.00
Co34   Co    0.48501   0.01383   0.02417   0.00000  Uiso   1.00
Co35   Co    0.48797   0.01056   0.39814   0.00000  Uiso   1.00
Co36   Co    0.48856   0.00906   0.52293   0.00000  Uiso   1.00
Co37   Co    0.48779   0.00736   0.64866   0.00000  Uiso   1.00
Co38   Co    0.48605   0.00844   0.77286   0.00000  Uiso   1.00
Co39   Co    0.48657   0.01064   0.89897   0.00000  Uiso   1.00
Co40   Co    0.48530   0.31673   0.39435   0.00000  Uiso   1.00
Co41   Co    0.48557   0.31751   0.14327   0.00000  Uiso   1.00
Co42   Co    0.48478   0.31764   0.26682   0.00000  Uiso   1.00
Co43   Co    0.48312   0.31655   0.01643   0.00000  Uiso   1.00
Co44   Co    0.48326   0.31628   0.51967   0.00000  Uiso   1.00
Co45   Co    0.48378   0.31783   0.89083   0.00000  Uiso   1.00
Co46   Co    0.48197   0.31663   0.76770   0.00000  Uiso   1.00
Co47   Co    0.48137   0.31722   0.64324   0.00000  Uiso   1.00
Co48   Co    0.25010   0.51806   0.29075   0.00000  Uiso   1.00
Co49   Co    0.74909   0.17027   0.26173   0.00000  Uiso   1.00
Co50   Co    0.74746   0.16622   0.01243   0.00000  Uiso   1.00
Co51   Co    0.74848   0.16791   0.13762   0.00000  Uiso   1.00
Co52   Co    0.74868   0.16377   0.51160   0.00000  Uiso   1.00
Co53   Co    0.74789   0.16348   0.63726   0.00000  Uiso   1.00
Co54   Co    0.74708   0.16765   0.88788   0.00000  Uiso   1.00
Co55   Co    0.74531   0.16465   0.76215   0.00000  Uiso   1.00
Co56   Co    0.72965   0.49866   0.15309   0.00000  Uiso   1.00
Co57   Co    0.73125   0.49912   0.27698   0.00000  Uiso   1.00
Co58   Co    0.73366   0.50040   0.40369   0.00000  Uiso   1.00
Co59   Co    0.73093   0.49888   0.02646   0.00000  Uiso   1.00
Co60   Co    0.73489   0.50133   0.53052   0.00000  Uiso   1.00
Co61   Co    0.73466   0.50147   0.65527   0.00000  Uiso   1.00
Co62   Co    0.73382   0.50246   0.77860   0.00000  Uiso   1.00
Co63   Co    0.73371   0.49936   0.90267   0.00000  Uiso   1.00
Co64   Co    0.50278   0.69580   0.04303   0.00000  Uiso   1.00
Co65   Co    0.50253   0.69560   0.29286   0.00000  Uiso   1.00
Co66   Co    0.50399   0.69511   0.16715   0.00000  Uiso   1.00
Co67   Co    0.50426   0.69634   0.42030   0.00000  Uiso   1.00
Co68   Co    0.50218   0.69614   0.79495   0.00000  Uiso   1.00
Co69   Co    0.50254   0.69690   0.91929   0.00000  Uiso   1.00
Co70   Co    0.50255   0.69642   0.54462   0.00000  Uiso   1.00
Co71   Co    0.50393   0.69511   0.67061   0.00000  Uiso   1.00
Co72   Co    0.74446   0.84823   0.03022   0.00000  Uiso   1.00
Co73   Co    0.74323   0.84726   0.15326   0.00000  Uiso   1.00
Co74   Co    0.74775   0.84554   0.40435   0.00000  Uiso   1.00
Co75   Co    0.74755   0.84649   0.27794   0.00000  Uiso   1.00
Co76   Co    0.74656   0.84697   0.90557   0.00000  Uiso   1.00
Co77   Co    0.74864   0.84844   0.52950   0.00000  Uiso   1.00
Co78   Co    0.74904   0.84786   0.78226   0.00000  Uiso   1.00
Co79   Co    0.75040   0.16721   0.38845   0.00000  Uiso   1.00
Co80   Co    0.98589   0.35296   0.13519   0.00000  Uiso   1.00
Co81   Co    0.98527   0.35128   0.26077   0.00000  Uiso   1.00
Co82   Co    0.98593   0.35301   0.38433   0.00000  Uiso   1.00
Co83   Co    0.98621   0.35147   0.00821   0.00000  Uiso   1.00
Co84   Co    0.98643   0.35351   0.50948   0.00000  Uiso   1.00
Co85   Co    0.98510   0.35221   0.63455   0.00000  Uiso   1.00
Co86   Co    0.98440   0.34956   0.75941   0.00000  Uiso   1.00
Co87   Co    0.98496   0.35035   0.88464   0.00000  Uiso   1.00
Co88   Co    0.98076   0.65708   0.04349   0.00000  Uiso   1.00
Co89   Co    0.98231   0.65642   0.16917   0.00000  Uiso   1.00
Co90   Co    0.97907   0.65875   0.29569   0.00000  Uiso   1.00
Co91   Co    0.97869   0.65969   0.41945   0.00000  Uiso   1.00
Co92   Co    0.97719   0.65956   0.54478   0.00000  Uiso   1.00
Co93   Co    0.97684   0.65854   0.66892   0.00000  Uiso   1.00
Co94   Co    0.97935   0.65922   0.79315   0.00000  Uiso   1.00
Co95   Co    0.98165   0.65825   0.91815   0.00000  Uiso   1.00
Co96   Co    0.75023   0.84700   0.65654   0.00000  Uiso   1.00
Cl97   Cl    0.23149   0.03659   0.03502   0.00000  Uiso   1.00
Cl98   Cl    0.23533   0.03926   0.28749   0.00000  Uiso   1.00
Cl99   Cl    0.07654   0.17093   0.46435   0.00000  Uiso   1.00
Cl100  Cl    0.07312   0.15949   0.23180   0.00000  Uiso   1.00
Cl101  Cl    0.23825   0.04165   0.53968   0.00000  Uiso   1.00
Cl102  Cl    0.07977   0.18037   0.96384   0.00000  Uiso   1.00
Cl103  Cl    0.08014   0.16353   0.72139   0.00000  Uiso   1.00
Cl104  Cl    0.23011   0.04271   0.78567   0.00000  Uiso   1.00
Cl105  Cl    0.12827   0.36048   0.10861   0.00000  Uiso   1.00
Cl106  Cl    0.07484   0.27547   0.17822   0.00000  Uiso   1.00
Cl107  Cl    0.13240   0.35198   0.36515   0.00000  Uiso   1.00
Cl108  Cl    0.07236   0.27866   0.42651   0.00000  Uiso   1.00
Cl109  Cl    0.07746   0.27565   0.67380   0.00000  Uiso   1.00
Cl110  Cl    0.13524   0.34863   0.62298   0.00000  Uiso   1.00
Cl111  Cl    0.13060   0.35480   0.86357   0.00000  Uiso   1.00
Cl112  Cl    0.07948   0.28221   0.91782   0.00000  Uiso   1.00
Cl113  Cl    0.14028   0.46323   0.07034   0.00000  Uiso   1.00
Cl114  Cl    0.14259   0.45867   0.32378   0.00000  Uiso   1.00
Cl115  Cl    0.03576   0.53943   0.45204   0.00000  Uiso   1.00
Cl116  Cl    0.03348   0.53080   0.19733   0.00000  Uiso   1.00
Cl117  Cl    0.14162   0.59429   0.25213   0.00000  Uiso   1.00
Cl118  Cl    0.02715   0.53092   0.94711   0.00000  Uiso   1.00
Cl119  Cl    0.02779   0.52525   0.68772   0.00000  Uiso   1.00
Cl120  Cl    0.13500   0.46328   0.81900   0.00000  Uiso   1.00
Cl121  Cl    0.13921   0.46246   0.57234   0.00000  Uiso   1.00
Cl122  Cl    0.14133   0.58653   0.74941   0.00000  Uiso   1.00
Cl123  Cl    0.14451   0.76618   0.09233   0.00000  Uiso   1.00
Cl124  Cl    0.12252   0.65836   0.13838   0.00000  Uiso   1.00
Cl125  Cl    0.14837   0.76042   0.34695   0.00000  Uiso   1.00
Cl126  Cl    0.11384   0.65834   0.38866   0.00000  Uiso   1.00
Cl127  Cl    0.14714   0.60165   0.00790   0.00000  Uiso   1.00
Cl128  Cl    0.14145   0.76619   0.59709   0.00000  Uiso   1.00
Cl129  Cl    0.11792   0.66112   0.63341   0.00000  Uiso   1.00
Cl130  Cl    0.14354   0.75972   0.84697   0.00000  Uiso   1.00
Cl131  Cl    0.12337   0.65539   0.89168   0.00000  Uiso   1.00
Cl132  Cl    0.14235   0.60038   0.50943   0.00000  Uiso   1.00
Cl133  Cl    0.09605   0.81896   0.26890   0.00000  Uiso   1.00
Cl134  Cl    0.12486   0.98079   0.36200   0.00000  Uiso   1.00
Cl135  Cl    0.10576   0.83075   0.00810   0.00000  Uiso   1.00
Cl136  Cl    0.12123   0.98249   0.11387   0.00000  Uiso   1.00
Cl137  Cl    0.01303   0.87752   0.43687   0.00000  Uiso   1.00
Cl138  Cl    0.00551   0.88005   0.18034   0.00000  Uiso   1.00
Cl139  Cl    0.12205   0.97772   0.61257   0.00000  Uiso   1.00
Cl140  Cl    0.09573   0.82343   0.75890   0.00000  Uiso   1.00
Cl141  Cl    0.12204   0.98403   0.85961   0.00000  Uiso   1.00
Cl142  Cl    0.10033   0.82795   0.50973   0.00000  Uiso   1.00
Cl143  Cl    0.01322   0.88503   0.94155   0.00000  Uiso   1.00
Cl144  Cl    0.00834   0.88546   0.68800   0.00000  Uiso   1.00
Cl145  Cl    0.44116   0.15363   0.03348   0.00000  Uiso   1.00
Cl146  Cl    0.33469   0.10274   0.09223   0.00000  Uiso   1.00
Cl147  Cl    0.31994   0.09203   0.34821   0.00000  Uiso   1.00
Cl148  Cl    0.43655   0.13983   0.30262   0.00000  Uiso   1.00
Cl149  Cl    0.34676   0.00914   0.51400   0.00000  Uiso   1.00
Cl150  Cl    0.33427   0.10821   0.58317   0.00000  Uiso   1.00
Cl151  Cl    0.43314   0.14117   0.80054   0.00000  Uiso   1.00
Cl152  Cl    0.32605   0.10405   0.83731   0.00000  Uiso   1.00
Cl153  Cl    0.44113   0.14336   0.53722   0.00000  Uiso   1.00
Cl154  Cl    0.27185   0.29584   0.46866   0.00000  Uiso   1.00
Cl155  Cl    0.37610   0.24498   0.42348   0.00000  Uiso   1.00
Cl156  Cl    0.38469   0.24056   0.16898   0.00000  Uiso   1.00
Cl157  Cl    0.26778   0.29635   0.21979   0.00000  Uiso   1.00
Cl158  Cl    0.39502   0.39647   0.35014   0.00000  Uiso   1.00
Cl159  Cl    0.37240   0.24787   0.67962   0.00000  Uiso   1.00
Cl160  Cl    0.25898   0.30633   0.99230   0.00000  Uiso   1.00
Cl161  Cl    0.37072   0.25409   0.93371   0.00000  Uiso   1.00
Cl162  Cl    0.26914   0.30020   0.71868   0.00000  Uiso   1.00
Cl163  Cl    0.37171   0.37167   0.62810   0.00000  Uiso   1.00
Cl164  Cl    0.35414   0.57480   0.20376   0.00000  Uiso   1.00
Cl165  Cl    0.29941   0.40649   0.17300   0.00000  Uiso   1.00
Cl166  Cl    0.47356   0.46284   0.01848   0.00000  Uiso   1.00
Cl167  Cl    0.34684   0.58146   0.45321   0.00000  Uiso   1.00
Cl168  Cl    0.47800   0.46530   0.24978   0.00000  Uiso   1.00
Cl169  Cl    0.38959   0.50118   0.81099   0.00000  Uiso   1.00
Cl170  Cl    0.29836   0.41044   0.92513   0.00000  Uiso   1.00
Cl171  Cl    0.38398   0.49287   0.56628   0.00000  Uiso   1.00
Cl172  Cl    0.34292   0.57952   0.71018   0.00000  Uiso   1.00
Cl173  Cl    0.43643   0.59540   0.91262   0.00000  Uiso   1.00
Cl174  Cl    0.36408   0.69722   0.25632   0.00000  Uiso   1.00
Cl175  Cl    0.33842   0.75953   0.13509   0.00000  Uiso   1.00
Cl176  Cl    0.33185   0.75020   0.39222   0.00000  Uiso   1.00
Cl177  Cl    0.35810   0.69806   0.01243   0.00000  Uiso   1.00
Cl178  Cl    0.27237   0.66143   0.80245   0.00000  Uiso   1.00
Cl179  Cl    0.32576   0.73998   0.66159   0.00000  Uiso   1.00
Cl180  Cl    0.33452   0.76260   0.88588   0.00000  Uiso   1.00
Cl181  Cl    0.36385   0.69335   0.50847   0.00000  Uiso   1.00
Cl182  Cl    0.27529   0.96105   0.19588   0.00000  Uiso   1.00
Cl183  Cl    0.26217   0.97528   0.42874   0.00000  Uiso   1.00
Cl184  Cl    0.45464   0.82354   0.06965   0.00000  Uiso   1.00
Cl185  Cl    0.41051   0.91254   0.27833   0.00000  Uiso   1.00
Cl186  Cl    0.45492   0.81593   0.32742   0.00000  Uiso   1.00
Cl187  Cl    0.40183   0.91782   0.00784   0.00000  Uiso   1.00
Cl188  Cl    0.45439   0.82537   0.81777   0.00000  Uiso   1.00
Cl189  Cl    0.28437   0.95218   0.95994   0.00000  Uiso   1.00
Cl190  Cl    0.33582   0.88916   0.70678   0.00000  Uiso   1.00
Cl191  Cl    0.44843   0.82396   0.57262   0.00000  Uiso   1.00
Cl192  Cl    0.34983   0.98638   0.73379   0.00000  Uiso   1.00
Cl193  Cl    0.58082   0.08765   0.36242   0.00000  Uiso   1.00
Cl194  Cl    0.63506   0.15310   0.21285   0.00000  Uiso   1.00
Cl195  Cl    0.52395   0.17691   0.40362   0.00000  Uiso   1.00
Cl196  Cl    0.51638   0.16825   0.13906   0.00000  Uiso   1.00
Cl197  Cl    0.60351   0.14228   0.49541   0.00000  Uiso   1.00
Cl198  Cl    0.70842   0.03875   0.04476   0.00000  Uiso   1.00
Cl199  Cl    0.58227   0.09425   0.86133   0.00000  Uiso   1.00
Cl200  Cl    0.70863   0.03670   0.54546   0.00000  Uiso   1.00
Cl201  Cl    0.70945   0.03789   0.79402   0.00000  Uiso   1.00
Cl202  Cl    0.61084   0.16214   0.72650   0.00000  Uiso   1.00
Cl203  Cl    0.57843   0.09452   0.62380   0.00000  Uiso   1.00
Cl204  Cl    0.63106   0.32134   0.11804   0.00000  Uiso   1.00
Cl205  Cl    0.63208   0.32737   0.36834   0.00000  Uiso   1.00
Cl206  Cl    0.66078   0.25894   0.25670   0.00000  Uiso   1.00
Cl207  Cl    0.66997   0.26053   0.02527   0.00000  Uiso   1.00
Cl208  Cl    0.61718   0.33781   0.60526   0.00000  Uiso   1.00
Cl209  Cl    0.54226   0.21370   0.94257   0.00000  Uiso   1.00
Cl210  Cl    0.62079   0.32655   0.85488   0.00000  Uiso   1.00
Cl211  Cl    0.58062   0.26450   0.68149   0.00000  Uiso   1.00
Cl212  Cl    0.51441   0.56003   0.43534   0.00000  Uiso   1.00
Cl213  Cl    0.63444   0.44038   0.31304   0.00000  Uiso   1.00
Cl214  Cl    0.64247   0.42577   0.06547   0.00000  Uiso   1.00
Cl215  Cl    0.53930   0.58118   0.21555   0.00000  Uiso   1.00
Cl216  Cl    0.66477   0.59504   0.26874   0.00000  Uiso   1.00
Cl217  Cl    0.59069   0.51135   0.74576   0.00000  Uiso   1.00
Cl218  Cl    0.63438   0.43767   0.81486   0.00000  Uiso   1.00
Cl219  Cl    0.50695   0.54935   0.66121   0.00000  Uiso   1.00
Cl220  Cl    0.58704   0.50947   0.99802   0.00000  Uiso   1.00
Cl221  Cl    0.63291   0.44211   0.56898   0.00000  Uiso   1.00
Cl222  Cl    0.66952   0.59785   0.52799   0.00000  Uiso   1.00
Cl223  Cl    0.73448   0.70631   0.04639   0.00000  Uiso   1.00
Cl224  Cl    0.64134   0.65776   0.13633   0.00000  Uiso   1.00
Cl225  Cl    0.72390   0.70747   0.30967   0.00000  Uiso   1.00
Cl226  Cl    0.63903   0.66535   0.39092   0.00000  Uiso   1.00
Cl227  Cl    0.74803   0.62982   0.18040   0.00000  Uiso   1.00
Cl228  Cl    0.73264   0.71741   0.56953   0.00000  Uiso   1.00
Cl229  Cl    0.64103   0.66770   0.63858   0.00000  Uiso   1.00
Cl230  Cl    0.73406   0.71736   0.81430   0.00000  Uiso   1.00
Cl231  Cl    0.63821   0.66739   0.88586   0.00000  Uiso   1.00
Cl232  Cl    0.58493   0.61589   0.96294   0.00000  Uiso   1.00
Cl233  Cl    0.74595   0.63112   0.68084   0.00000  Uiso   1.00
Cl234  Cl    0.56279   0.91810   0.46667   0.00000  Uiso   1.00
Cl235  Cl    0.63601   0.97376   0.18228   0.00000  Uiso   1.00
Cl236  Cl    0.59509   0.81474   0.35255   0.00000  Uiso   1.00
Cl237  Cl    0.60344   0.99423   0.32162   0.00000  Uiso   1.00
Cl238  Cl    0.52245   0.87979   0.16978   0.00000  Uiso   1.00
Cl239  Cl    0.60896   0.83677   0.69254   0.00000  Uiso   1.00
Cl240  Cl    0.65613   0.93042   0.74772   0.00000  Uiso   1.00
Cl241  Cl    0.52438   0.87627   0.92514   0.00000  Uiso   1.00
Cl242  Cl    0.65427   0.93458   0.99821   0.00000  Uiso   1.00
Cl243  Cl    0.88796   0.18010   0.11016   0.00000  Uiso   1.00
Cl244  Cl    0.92502   0.08804   0.07187   0.00000  Uiso   1.00
Cl245  Cl    0.92489   0.08149   0.31950   0.00000  Uiso   1.00
Cl246  Cl    0.86528   0.01840   0.24754   0.00000  Uiso   1.00
Cl247  Cl    0.86124   0.02998   0.49836   0.00000  Uiso   1.00
Cl248  Cl    0.88271   0.17451   0.35105   0.00000  Uiso   1.00
Cl249  Cl    0.85830   0.02469   0.74870   0.00000  Uiso   1.00
Cl250  Cl    0.93048   0.09062   0.56846   0.00000  Uiso   1.00
Cl251  Cl    0.93370   0.09178   0.82709   0.00000  Uiso   1.00
Cl252  Cl    0.89081   0.18556   0.61266   0.00000  Uiso   1.00
Cl253  Cl    0.89182   0.19358   0.87073   0.00000  Uiso   1.00
Cl254  Cl    0.86260   0.01916   0.99385   0.00000  Uiso   1.00
Cl255  Cl    0.83286   0.24213   0.18354   0.00000  Uiso   1.00
Cl256  Cl    0.84308   0.34978   0.22600   0.00000  Uiso   1.00
Cl257  Cl    0.78246   0.28526   0.44323   0.00000  Uiso   1.00
Cl258  Cl    0.90922   0.25468   0.74717   0.00000  Uiso   1.00
Cl259  Cl    0.76256   0.30501   0.65737   0.00000  Uiso   1.00
Cl260  Cl    0.75351   0.31613   0.88321   0.00000  Uiso   1.00
Cl261  Cl    0.84498   0.35042   0.97921   0.00000  Uiso   1.00
Cl262  Cl    0.91668   0.25819   0.50585   0.00000  Uiso   1.00
Cl263  Cl    0.85592   0.52018   0.11604   0.00000  Uiso   1.00
Cl264  Cl    0.96374   0.48274   0.04228   0.00000  Uiso   1.00
Cl265  Cl    0.86776   0.52802   0.37096   0.00000  Uiso   1.00
Cl266  Cl    0.95704   0.49052   0.28849   0.00000  Uiso   1.00
Cl267  Cl    0.85965   0.52741   0.62025   0.00000  Uiso   1.00
Cl268  Cl    0.96571   0.48661   0.53848   0.00000  Uiso   1.00
Cl269  Cl    0.85853   0.52585   0.87228   0.00000  Uiso   1.00
Cl270  Cl    0.95956   0.48033   0.80018   0.00000  Uiso   1.00
Cl271  Cl    0.85081   0.68202   0.26506   0.00000  Uiso   1.00
Cl272  Cl    0.81853   0.75273   0.13644   0.00000  Uiso   1.00
Cl273  Cl    0.75061   0.62797   0.43802   0.00000  Uiso   1.00
Cl274  Cl    0.84449   0.67724   0.01419   0.00000  Uiso   1.00
Cl275  Cl    0.96107   0.79333   0.05467   0.00000  Uiso   1.00
Cl276  Cl    0.84806   0.68615   0.76206   0.00000  Uiso   1.00
Cl277  Cl    0.75669   0.62890   0.94440   0.00000  Uiso   1.00
Cl278  Cl    0.84583   0.67915   0.50221   0.00000  Uiso   1.00
Cl279  Cl    0.81297   0.74758   0.90610   0.00000  Uiso   1.00
Cl280  Cl    0.94470   0.77630   0.83989   0.00000  Uiso   1.00
Cl281  Cl    0.89994   0.73673   0.58641   0.00000  Uiso   1.00
Cl282  Cl    0.84061   0.91108   0.19801   0.00000  Uiso   1.00
Cl283  Cl    0.89588   0.84623   0.38962   0.00000  Uiso   1.00
Cl284  Cl    0.82993   0.91771   0.45202   0.00000  Uiso   1.00
Cl285  Cl    0.96436   0.80169   0.29632   0.00000  Uiso   1.00
Cl286  Cl    0.89752   0.84388   0.62009   0.00000  Uiso   1.00
Cl287  Cl    0.82699   0.92442   0.70160   0.00000  Uiso   1.00
Cl288  Cl    0.83759   0.91045   0.94497   0.00000  Uiso   1.00
H289   H     0.14290   0.02777   0.29146   0.00000  Uiso   1.00
H290   H     0.02660   0.05128   0.08984   0.00000  Uiso   1.00
H291   H     0.17853   0.05340   0.11010   0.00000  Uiso   1.00
H292   H     0.17985   0.05216   0.36016   0.00000  Uiso   1.00
H293   H     0.03666   0.04744   0.34098   0.00000  Uiso   1.00
H294   H     0.13807   0.03711   0.04238   0.00000  Uiso   1.00
H295   H     0.02907   0.05283   0.58890   0.00000  Uiso   1.00
H296   H     0.03346   0.05001   0.84111   0.00000  Uiso   1.00
H297   H     0.17907   0.04975   0.60680   0.00000  Uiso   1.00
H298   H     0.17464   0.05244   0.85444   0.00000  Uiso   1.00
H299   H     0.13602   0.03666   0.78999   0.00000  Uiso   1.00
H300   H     0.14276   0.03183   0.54391   0.00000  Uiso   1.00
H301   H     0.12384   0.21937   0.14937   0.00000  Uiso   1.00
H302   H     0.02521   0.22859   0.24554   0.00000  Uiso   1.00
H303   H     0.13220   0.22506   0.39373   0.00000  Uiso   1.00
H304   H     0.01671   0.22658   0.49999   0.00000  Uiso   1.00
H305   H     0.00373   0.39733   0.07153   0.00000  Uiso   1.00
H306   H     0.00875   0.39265   0.31940   0.00000  Uiso   1.00
H307   H     0.01485   0.22960   0.00711   0.00000  Uiso   1.00
H308   H     0.19573   0.20832   0.43161   0.00000  Uiso   1.00
H309   H     0.20501   0.20885   0.18508   0.00000  Uiso   1.00
H310   H     0.19242   0.20543   0.93123   0.00000  Uiso   1.00
H311   H     0.01044   0.39273   0.57340   0.00000  Uiso   1.00
H312   H     0.01765   0.22458   0.75380   0.00000  Uiso   1.00
H313   H     0.20178   0.20749   0.68806   0.00000  Uiso   1.00
H314   H     0.12598   0.21727   0.64448   0.00000  Uiso   1.00
H315   H     0.13609   0.22704   0.88660   0.00000  Uiso   1.00
H316   H     0.01235   0.38838   0.82172   0.00000  Uiso   1.00
H317   H     0.19890   0.39722   0.66286   0.00000  Uiso   1.00
H318   H     0.12099   0.52785   0.17845   0.00000  Uiso   1.00
H319   H     0.23836   0.56164   0.22659   0.00000  Uiso   1.00
H320   H     0.12424   0.52983   0.42637   0.00000  Uiso   1.00
H321   H     0.08333   0.40766   0.29275   0.00000  Uiso   1.00
H322   H     0.23780   0.56645   0.47567   0.00000  Uiso   1.00
H323   H     0.06090   0.59465   0.01764   0.00000  Uiso   1.00
H324   H     0.07780   0.41939   0.02791   0.00000  Uiso   1.00
H325   H     0.19818   0.40172   0.15345   0.00000  Uiso   1.00
H326   H     0.19986   0.40182   0.40569   0.00000  Uiso   1.00
H327   H     0.05886   0.59502   0.27078   0.00000  Uiso   1.00
H328   H     0.11861   0.52348   0.67661   0.00000  Uiso   1.00
H329   H     0.11995   0.52511   0.93140   0.00000  Uiso   1.00
H330   H     0.07599   0.41655   0.77657   0.00000  Uiso   1.00
H331   H     0.23043   0.56506   0.73294   0.00000  Uiso   1.00
H332   H     0.23636   0.56343   0.98244   0.00000  Uiso   1.00
H333   H     0.05650   0.58799   0.76635   0.00000  Uiso   1.00
H334   H     0.07049   0.42926   0.51433   0.00000  Uiso   1.00
H335   H     0.19619   0.40359   0.90140   0.00000  Uiso   1.00
H336   H     0.05879   0.59854   0.52633   0.00000  Uiso   1.00
H337   H     0.07863   0.72244   0.05840   0.00000  Uiso   1.00
H338   H     0.19213   0.71022   0.16619   0.00000  Uiso   1.00
H339   H     0.08703   0.71312   0.31546   0.00000  Uiso   1.00
H340   H     0.18313   0.71214   0.41589   0.00000  Uiso   1.00
H341   H     0.00450   0.69828   0.10870   0.00000  Uiso   1.00
H342   H     0.01127   0.69685   0.35640   0.00000  Uiso   1.00
H343   H     0.08147   0.71269   0.57020   0.00000  Uiso   1.00
H344   H     0.18397   0.70982   0.66517   0.00000  Uiso   1.00
H345   H     0.08086   0.71402   0.81671   0.00000  Uiso   1.00
H346   H     0.18947   0.70658   0.91699   0.00000  Uiso   1.00
H347   H     0.01242   0.69679   0.85552   0.00000  Uiso   1.00
H348   H     0.00512   0.69912   0.61028   0.00000  Uiso   1.00
H349   H     0.24376   0.78818   0.86222   0.00000  Uiso   1.00
H350   H     0.09320   0.86575   0.19135   0.00000  Uiso   1.00
H351   H     0.21091   0.87549   0.23422   0.00000  Uiso   1.00
H352   H     0.05438   0.89749   0.25770   0.00000  Uiso   1.00
H353   H     0.10795   0.88438   0.43926   0.00000  Uiso   1.00
H354   H     0.20652   0.87374   0.48786   0.00000  Uiso   1.00
H355   H     0.06681   0.91406   0.00521   0.00000  Uiso   1.00
H356   H     0.10284   0.87550   0.69051   0.00000  Uiso   1.00
H357   H     0.20906   0.87446   0.73715   0.00000  Uiso   1.00
H358   H     0.06240   0.90922   0.75830   0.00000  Uiso   1.00
H359   H     0.10949   0.88100   0.93801   0.00000  Uiso   1.00
H360   H     0.21126   0.87742   0.98263   0.00000  Uiso   1.00
H361   H     0.05614   0.90250   0.50725   0.00000  Uiso   1.00
H362   H     0.39097   0.06153   0.38989   0.00000  Uiso   1.00
H363   H     0.41752   0.09380   0.11646   0.00000  Uiso   1.00
H364   H     0.35914   0.17117   0.26348   0.00000  Uiso   1.00
H365   H     0.25522   0.13033   0.05638   0.00000  Uiso   1.00
H366   H     0.34457   0.00939   0.39120   0.00000  Uiso   1.00
H367   H     0.34499   0.00329   0.15452   0.00000  Uiso   1.00
H368   H     0.25252   0.12484   0.30436   0.00000  Uiso   1.00
H369   H     0.35982   0.17437   0.00334   0.00000  Uiso   1.00
H370   H     0.40715   0.07775   0.61956   0.00000  Uiso   1.00
H371   H     0.40432   0.07557   0.86897   0.00000  Uiso   1.00
H372   H     0.35603   0.16658   0.76456   0.00000  Uiso   1.00
H373   H     0.25205   0.13042   0.55863   0.00000  Uiso   1.00
H374   H     0.25266   0.12825   0.80610   0.00000  Uiso   1.00
H375   H     0.36318   0.17733   0.50187   0.00000  Uiso   1.00
H376   H     0.37895   0.37294   0.16767   0.00000  Uiso   1.00
H377   H     0.29937   0.23651   0.15735   0.00000  Uiso   1.00
H378   H     0.45757   0.27706   0.20353   0.00000  Uiso   1.00
H379   H     0.35142   0.31910   0.25298   0.00000  Uiso   1.00
H380   H     0.46777   0.27149   0.45564   0.00000  Uiso   1.00
H381   H     0.29866   0.23255   0.39557   0.00000  Uiso   1.00
H382   H     0.34783   0.32188   0.01066   0.00000  Uiso   1.00
H383   H     0.35530   0.31051   0.49901   0.00000  Uiso   1.00
H384   H     0.49934   0.36312   0.58012   0.00000  Uiso   1.00
H385   H     0.29282   0.23335   0.64872   0.00000  Uiso   1.00
H386   H     0.46474   0.27194   0.70527   0.00000  Uiso   1.00
H387   H     0.35468   0.31970   0.75796   0.00000  Uiso   1.00
H388   H     0.46662   0.27430   0.95230   0.00000  Uiso   1.00
H389   H     0.28917   0.23919   0.89905   0.00000  Uiso   1.00
H390   H     0.37811   0.38093   0.90846   0.00000  Uiso   1.00
H391   H     0.39548   0.50051   0.25628   0.00000  Uiso   1.00
H392   H     0.34726   0.46034   0.38024   0.00000  Uiso   1.00
H393   H     0.39729   0.50209   0.01066   0.00000  Uiso   1.00
H394   H     0.26413   0.47145   0.09872   0.00000  Uiso   1.00
H395   H     0.26321   0.47298   0.35625   0.00000  Uiso   1.00
H396   H     0.43681   0.43201   0.54109   0.00000  Uiso   1.00
H397   H     0.26530   0.47621   0.85516   0.00000  Uiso   1.00
H398   H     0.32709   0.43704   0.64752   0.00000  Uiso   1.00
H399   H     0.44388   0.43696   0.78626   0.00000  Uiso   1.00
H400   H     0.26195   0.47376   0.59973   0.00000  Uiso   1.00
H401   H     0.35965   0.56478   0.89749   0.00000  Uiso   1.00
H402   H     0.30172   0.63384   0.03413   0.00000  Uiso   1.00
H403   H     0.47340   0.65690   0.22980   0.00000  Uiso   1.00
H404   H     0.42236   0.75988   0.14872   0.00000  Uiso   1.00
H405   H     0.39904   0.63757   0.43549   0.00000  Uiso   1.00
H406   H     0.47543   0.65591   0.48253   0.00000  Uiso   1.00
H407   H     0.41716   0.75446   0.40228   0.00000  Uiso   1.00
H408   H     0.40526   0.63343   0.18453   0.00000  Uiso   1.00
H409   H     0.30380   0.63860   0.27349   0.00000  Uiso   1.00
H410   H     0.25316   0.78749   0.36317   0.00000  Uiso   1.00
H411   H     0.25589   0.79010   0.10671   0.00000  Uiso   1.00
H412   H     0.48101   0.65306   0.73452   0.00000  Uiso   1.00
H413   H     0.41099   0.75466   0.65321   0.00000  Uiso   1.00
H414   H     0.29936   0.64151   0.53556   0.00000  Uiso   1.00
H415   H     0.36140   0.69320   0.80695   0.00000  Uiso   1.00
H416   H     0.47867   0.65337   0.98413   0.00000  Uiso   1.00
H417   H     0.40279   0.63179   0.68489   0.00000  Uiso   1.00
H418   H     0.41636   0.75885   0.89889   0.00000  Uiso   1.00
H419   H     0.25770   0.78996   0.61515   0.00000  Uiso   1.00
H420   H     0.46082   0.97238   0.21499   0.00000  Uiso   1.00
H421   H     0.47222   0.96477   0.46229   0.00000  Uiso   1.00
H422   H     0.33134   0.88491   0.29595   0.00000  Uiso   1.00
H423   H     0.32120   0.88973   0.03469   0.00000  Uiso   1.00
H424   H     0.36859   0.82642   0.31262   0.00000  Uiso   1.00
H425   H     0.36438   0.82261   0.06393   0.00000  Uiso   1.00
H426   H     0.46568   0.96405   0.71004   0.00000  Uiso   1.00
H427   H     0.27825   0.95556   0.53893   0.00000  Uiso   1.00
H428   H     0.40236   0.92802   0.65939   0.00000  Uiso   1.00
H429   H     0.46460   0.96918   0.96347   0.00000  Uiso   1.00
H430   H     0.28459   0.94080   0.76934   0.00000  Uiso   1.00
H431   H     0.36148   0.83319   0.55370   0.00000  Uiso   1.00
H432   H     0.36229   0.83032   0.80683   0.00000  Uiso   1.00
H433   H     0.36514   0.97992   0.93080   0.00000  Uiso   1.00
H434   H     0.61127   0.16321   0.38933   0.00000  Uiso   1.00
H435   H     0.57358   0.10199   0.21072   0.00000  Uiso   1.00
H436   H     0.66346   0.09554   0.36703   0.00000  Uiso   1.00
H437   H     0.60111   0.14672   0.11765   0.00000  Uiso   1.00
H438   H     0.61944   0.02724   0.03497   0.00000  Uiso   1.00
H439   H     0.70706   0.02791   0.18322   0.00000  Uiso   1.00
H440   H     0.50716   0.05677   0.08430   0.00000  Uiso   1.00
H441   H     0.50233   0.05491   0.33760   0.00000  Uiso   1.00
H442   H     0.51231   0.04971   0.83758   0.00000  Uiso   1.00
H443   H     0.66823   0.08681   0.61349   0.00000  Uiso   1.00
H444   H     0.66721   0.09749   0.86834   0.00000  Uiso   1.00
H445   H     0.62088   0.01806   0.77958   0.00000  Uiso   1.00
H446   H     0.50622   0.05166   0.58376   0.00000  Uiso   1.00
H447   H     0.62131   0.02507   0.53406   0.00000  Uiso   1.00
H448   H     0.53483   0.19207   0.51923   0.00000  Uiso   1.00
H449   H     0.62661   0.19507   0.91204   0.00000  Uiso   1.00
H450   H     0.68880   0.38060   0.40024   0.00000  Uiso   1.00
H451   H     0.69328   0.36804   0.15670   0.00000  Uiso   1.00
H452   H     0.57676   0.26512   0.25667   0.00000  Uiso   1.00
H453   H     0.58232   0.27648   0.02840   0.00000  Uiso   1.00
H454   H     0.72779   0.20686   0.45148   0.00000  Uiso   1.00
H455   H     0.57143   0.39300   0.27957   0.00000  Uiso   1.00
H456   H     0.72160   0.21067   0.20143   0.00000  Uiso   1.00
H457   H     0.50407   0.36234   0.33089   0.00000  Uiso   1.00
H458   H     0.58419   0.37404   0.03790   0.00000  Uiso   1.00
H459   H     0.50521   0.36160   0.07846   0.00000  Uiso   1.00
H460   H     0.57264   0.39856   0.52760   0.00000  Uiso   1.00
H461   H     0.64923   0.22700   0.64302   0.00000  Uiso   1.00
H462   H     0.57215   0.39500   0.77933   0.00000  Uiso   1.00
H463   H     0.50110   0.36181   0.83189   0.00000  Uiso   1.00
H464   H     0.68040   0.38245   0.88432   0.00000  Uiso   1.00
H465   H     0.68500   0.38202   0.64156   0.00000  Uiso   1.00
H466   H     0.54079   0.20763   0.74762   0.00000  Uiso   1.00
H467   H     0.72348   0.20939   0.95534   0.00000  Uiso   1.00
H468   H     0.71319   0.20227   0.69515   0.00000  Uiso   1.00
H469   H     0.61083   0.54048   0.18507   0.00000  Uiso   1.00
H470   H     0.71073   0.54244   0.21366   0.00000  Uiso   1.00
H471   H     0.59068   0.51539   0.41167   0.00000  Uiso   1.00
H472   H     0.71816   0.54520   0.46840   0.00000  Uiso   1.00
H473   H     0.53096   0.57011   0.02161   0.00000  Uiso   1.00
H474   H     0.74861   0.45412   0.09214   0.00000  Uiso   1.00
H475   H     0.64078   0.56306   0.92583   0.00000  Uiso   1.00
H476   H     0.58475   0.50443   0.63700   0.00000  Uiso   1.00
H477   H     0.71574   0.54609   0.71610   0.00000  Uiso   1.00
H478   H     0.53298   0.57162   0.77839   0.00000  Uiso   1.00
H479   H     0.71089   0.54274   0.96420   0.00000  Uiso   1.00
H480   H     0.63868   0.71281   0.06499   0.00000  Uiso   1.00
H481   H     0.69128   0.73185   0.13112   0.00000  Uiso   1.00
H482   H     0.58932   0.63139   0.29285   0.00000  Uiso   1.00
H483   H     0.63329   0.72141   0.31445   0.00000  Uiso   1.00
H484   H     0.53835   0.72935   0.35633   0.00000  Uiso   1.00
H485   H     0.68775   0.74196   0.38494   0.00000  Uiso   1.00
H486   H     0.53232   0.73250   0.10692   0.00000  Uiso   1.00
H487   H     0.63348   0.72176   0.56595   0.00000  Uiso   1.00
H488   H     0.68284   0.75417   0.63466   0.00000  Uiso   1.00
H489   H     0.63973   0.72174   0.81428   0.00000  Uiso   1.00
H490   H     0.59277   0.63478   0.54477   0.00000  Uiso   1.00
H491   H     0.68811   0.74382   0.88226   0.00000  Uiso   1.00
H492   H     0.52321   0.73952   0.60589   0.00000  Uiso   1.00
H493   H     0.52817   0.73700   0.85784   0.00000  Uiso   1.00
H494   H     0.60796   0.85794   0.15460   0.00000  Uiso   1.00
H495   H     0.72903   0.89121   0.21503   0.00000  Uiso   1.00
H496   H     0.52817   0.87079   0.33869   0.00000  Uiso   1.00
H497   H     0.66258   0.93808   0.33124   0.00000  Uiso   1.00
H498   H     0.71905   0.88824   0.46452   0.00000  Uiso   1.00
H499   H     0.57581   0.95606   0.01113   0.00000  Uiso   1.00
H500   H     0.54406   0.89289   0.66512   0.00000  Uiso   1.00
H501   H     0.72661   0.88580   0.72138   0.00000  Uiso   1.00
H502   H     0.56988   0.94267   0.76059   0.00000  Uiso   1.00
H503   H     0.60823   0.84994   0.90835   0.00000  Uiso   1.00
H504   H     0.72788   0.89147   0.96496   0.00000  Uiso   1.00
H505   H     0.63041   0.87456   0.50385   0.00000  Uiso   1.00
H506   H     0.77206   0.12589   0.07277   0.00000  Uiso   1.00
H507   H     0.96317   0.13894   0.14285   0.00000  Uiso   1.00
H508   H     0.85339   0.11338   0.02356   0.00000  Uiso   1.00
H509   H     0.96511   0.13932   0.38685   0.00000  Uiso   1.00
H510   H     0.84996   0.10999   0.27911   0.00000  Uiso   1.00
H511   H     0.77116   0.12474   0.32721   0.00000  Uiso   1.00
H512   H     0.76891   0.11875   0.57678   0.00000  Uiso   1.00
H513   H     0.96574   0.13851   0.64562   0.00000  Uiso   1.00
H514   H     0.86182   0.12848   0.53343   0.00000  Uiso   1.00
H515   H     0.96775   0.15073   0.90561   0.00000  Uiso   1.00
H516   H     0.86000   0.12514   0.79391   0.00000  Uiso   1.00
H517   H     0.78276   0.13181   0.82287   0.00000  Uiso   1.00
H518   H     0.88552   0.29576   0.15132   0.00000  Uiso   1.00
H519   H     0.95820   0.31309   0.19622   0.00000  Uiso   1.00
H520   H     0.86549   0.31390   0.41401   0.00000  Uiso   1.00
H521   H     0.96365   0.31344   0.44843   0.00000  Uiso   1.00
H522   H     0.78392   0.29354   0.24623   0.00000  Uiso   1.00
H523   H     0.78499   0.28937   0.00006   0.00000  Uiso   1.00
H524   H     0.83919   0.34293   0.63535   0.00000  Uiso   1.00
H525   H     0.96192   0.31153   0.69764   0.00000  Uiso   1.00
H526   H     0.83911   0.34779   0.87332   0.00000  Uiso   1.00
H527   H     0.96515   0.30808   0.94502   0.00000  Uiso   1.00
H528   H     0.82942   0.23323   0.75609   0.00000  Uiso   1.00
H529   H     0.83706   0.22698   0.52233   0.00000  Uiso   1.00
H530   H     0.91239   0.44736   0.11676   0.00000  Uiso   1.00
H531   H     0.86602   0.46769   0.04268   0.00000  Uiso   1.00
H532   H     0.91779   0.44792   0.35893   0.00000  Uiso   1.00
H533   H     0.86342   0.47675   0.29581   0.00000  Uiso   1.00
H534   H     0.75871   0.45818   0.34131   0.00000  Uiso   1.00
H535   H     0.80806   0.59549   0.00743   0.00000  Uiso   1.00
H536   H     0.92158   0.46374   0.61789   0.00000  Uiso   1.00
H537   H     0.87159   0.48049   0.54392   0.00000  Uiso   1.00
H538   H     0.90895   0.44178   0.86666   0.00000  Uiso   1.00
H539   H     0.86360   0.47637   0.79853   0.00000  Uiso   1.00
H540   H     0.75953   0.46026   0.59090   0.00000  Uiso   1.00
H541   H     0.75953   0.46058   0.83875   0.00000  Uiso   1.00
H542   H     0.80202   0.59734   0.50795   0.00000  Uiso   1.00
H543   H     0.94691   0.78342   0.40638   0.00000  Uiso   1.00
H544   H     0.84562   0.63580   0.19039   0.00000  Uiso   1.00
H545   H     0.95444   0.61738   0.23297   0.00000  Uiso   1.00
H546   H     0.84865   0.62072   0.43903   0.00000  Uiso   1.00
H547   H     0.95333   0.61779   0.48288   0.00000  Uiso   1.00
H548   H     0.89547   0.72091   0.16083   0.00000  Uiso   1.00
H549   H     0.79214   0.61342   0.25706   0.00000  Uiso   1.00
H550   H     0.83928   0.63497   0.68868   0.00000  Uiso   1.00
H551   H     0.95295   0.61877   0.73147   0.00000  Uiso   1.00
H552   H     0.89140   0.71781   0.91498   0.00000  Uiso   1.00
H553   H     0.84886   0.62861   0.93923   0.00000  Uiso   1.00
H554   H     0.95426   0.61777   0.98126   0.00000  Uiso   1.00
H555   H     0.84356   0.78988   0.55612   0.00000  Uiso   1.00
H556   H     0.95076   0.77778   0.64773   0.00000  Uiso   1.00
H557   H     0.79618   0.61109   0.75901   0.00000  Uiso   1.00
H558   H     0.97647   0.97289   0.21990   0.00000  Uiso   1.00
H559   H     0.97617   0.97507   0.46502   0.00000  Uiso   1.00
H560   H     0.90233   0.95881   0.16940   0.00000  Uiso   1.00
H561   H     0.88547   0.83756   0.27138   0.00000  Uiso   1.00
H562   H     0.88618   0.83814   0.02597   0.00000  Uiso   1.00
H563   H     0.76574   0.80402   0.09302   0.00000  Uiso   1.00
H564   H     0.79948   0.96418   0.01786   0.00000  Uiso   1.00
H565   H     0.89783   0.95982   0.42210   0.00000  Uiso   1.00
H566   H     0.79471   0.96918   0.27057   0.00000  Uiso   1.00
H567   H     0.77456   0.80330   0.34395   0.00000  Uiso   1.00
H568   H     0.78982   0.97727   0.51971   0.00000  Uiso   1.00
H569   H     0.96883   0.97699   0.71283   0.00000  Uiso   1.00
H570   H     0.97683   0.97174   0.96270   0.00000  Uiso   1.00
H571   H     0.79230   0.97324   0.77813   0.00000  Uiso   1.00
H572   H     0.89321   0.96670   0.67189   0.00000  Uiso   1.00
H573   H     0.77094   0.80647   0.84428   0.00000  Uiso   1.00
H574   H     0.90121   0.95838   0.91687   0.00000  Uiso   1.00
H575   H     0.86719   0.81182   0.81304   0.00000  Uiso   1.00
H576   H     0.77678   0.80571   0.59217   0.00000  Uiso   1.00
C577   C     0.08004   0.02131   0.21724   0.00000  Uiso   1.00
C578   C     0.12632   0.01912   0.21074   0.00000  Uiso   1.00
C579   C     0.12714   0.01552   0.46271   0.00000  Uiso   1.00
C580   C     0.17781   0.03934   0.14835   0.00000  Uiso   1.00
C581   C     0.20887   0.09654   0.18761   0.00000  Uiso   1.00
C582   C     0.19958   0.05514   0.19106   0.00000  Uiso   1.00
C583   C     0.15411   0.02541   0.25136   0.00000  Uiso   1.00
C584   C     0.19423   0.03953   0.24131   0.00000  Uiso   1.00
C585   C     0.08063   0.01789   0.46577   0.00000  Uiso   1.00
C586   C     0.18131   0.03796   0.39898   0.00000  Uiso   1.00
C587   C     0.21270   0.09582   0.43682   0.00000  Uiso   1.00
C588   C     0.20203   0.05520   0.44121   0.00000  Uiso   1.00
C589   C     0.14983   0.17964   0.31236   0.00000  Uiso   1.00
C590   C     0.14754   0.17964   0.06181   0.00000  Uiso   1.00
C591   C     0.14438   0.01480   0.15934   0.00000  Uiso   1.00
C592   C     0.14513   0.01456   0.41087   0.00000  Uiso   1.00
C593   C     0.19562   0.04027   0.49319   0.00000  Uiso   1.00
C594   C     0.07659   0.19708   0.28192   0.00000  Uiso   1.00
C595   C     0.14925   0.02994   0.00177   0.00000  Uiso   1.00
C596   C     0.10835   0.19790   0.32096   0.00000  Uiso   1.00
C597   C     0.07731   0.01709   0.71607   0.00000  Uiso   1.00
C598   C     0.12244   0.01763   0.70965   0.00000  Uiso   1.00
C599   C     0.11113   0.19757   0.81458   0.00000  Uiso   1.00
C600   C     0.17582   0.03823   0.64794   0.00000  Uiso   1.00
C601   C     0.12254   0.01917   0.95940   0.00000  Uiso   1.00
C602   C     0.20965   0.09631   0.68428   0.00000  Uiso   1.00
C603   C     0.19586   0.05564   0.68968   0.00000  Uiso   1.00
C604   C     0.14849   0.02884   0.75196   0.00000  Uiso   1.00
C605   C     0.18917   0.04145   0.74022   0.00000  Uiso   1.00
C606   C     0.17265   0.04371   0.89596   0.00000  Uiso   1.00
C607   C     0.21193   0.09840   0.93780   0.00000  Uiso   1.00
C608   C     0.19458   0.05818   0.93924   0.00000  Uiso   1.00
C609   C     0.14856   0.17732   0.55954   0.00000  Uiso   1.00
C610   C     0.15084   0.17752   0.80903   0.00000  Uiso   1.00
C611   C     0.14003   0.01446   0.65881   0.00000  Uiso   1.00
C612   C     0.07774   0.01868   0.96523   0.00000  Uiso   1.00
C613   C     0.14100   0.01628   0.90842   0.00000  Uiso   1.00
C614   C     0.07750   0.19642   0.77673   0.00000  Uiso   1.00
C615   C     0.18862   0.04065   0.98962   0.00000  Uiso   1.00
C616   C     0.15497   0.02562   0.50377   0.00000  Uiso   1.00
C617   C     0.07548   0.19877   0.52503   0.00000  Uiso   1.00
C618   C     0.10734   0.19694   0.56508   0.00000  Uiso   1.00
C619   C     0.13390   0.38616   0.17070   0.00000  Uiso   1.00
C620   C     0.05913   0.37686   0.44589   0.00000  Uiso   1.00
C621   C     0.10667   0.22507   0.36182   0.00000  Uiso   1.00
C622   C     0.07371   0.25049   0.36670   0.00000  Uiso   1.00
C623   C     0.10137   0.22000   0.11446   0.00000  Uiso   1.00
C624   C     0.04125   0.22790   0.03430   0.00000  Uiso   1.00
C625   C     0.01274   0.28637   0.07505   0.00000  Uiso   1.00
C626   C     0.04064   0.25165   0.07790   0.00000  Uiso   1.00
C627   C     0.13374   0.38663   0.41963   0.00000  Uiso   1.00
C628   C     0.06983   0.24693   0.12047   0.00000  Uiso   1.00
C629   C     0.05791   0.37375   0.19919   0.00000  Uiso   1.00
C630   C     0.04756   0.22671   0.27993   0.00000  Uiso   1.00
C631   C     0.09975   0.39599   0.45170   0.00000  Uiso   1.00
C632   C     0.01741   0.28843   0.32064   0.00000  Uiso   1.00
C633   C     0.04449   0.25402   0.32327   0.00000  Uiso   1.00
C634   C     0.10023   0.38808   0.20966   0.00000  Uiso   1.00
C635   C     0.24806   0.23378   0.30870   0.00000  Uiso   1.00
C636   C     0.07610   0.20227   0.02668   0.00000  Uiso   1.00
C637   C     0.10773   0.20063   0.06648   0.00000  Uiso   1.00
C638   C     0.05942   0.37038   0.95041   0.00000  Uiso   1.00
C639   C     0.04126   0.22540   0.53127   0.00000  Uiso   1.00
C640   C     0.01483   0.28756   0.57358   0.00000  Uiso   1.00
C641   C     0.04055   0.25303   0.57378   0.00000  Uiso   1.00
C642   C     0.10273   0.21934   0.61192   0.00000  Uiso   1.00
C643   C     0.07175   0.24709   0.61485   0.00000  Uiso   1.00
C644   C     0.05876   0.37030   0.69818   0.00000  Uiso   1.00
C645   C     0.07571   0.24670   0.86446   0.00000  Uiso   1.00
C646   C     0.09884   0.38953   0.70587   0.00000  Uiso   1.00
C647   C     0.04079   0.22157   0.78483   0.00000  Uiso   1.00
C648   C     0.13560   0.38172   0.67716   0.00000  Uiso   1.00
C649   C     0.01306   0.28447   0.82309   0.00000  Uiso   1.00
C650   C     0.04350   0.24980   0.82692   0.00000  Uiso   1.00
C651   C     0.10922   0.22252   0.85837   0.00000  Uiso   1.00
C652   C     0.13268   0.38648   0.91943   0.00000  Uiso   1.00
C653   C     0.24562   0.23509   0.80752   0.00000  Uiso   1.00
C654   C     0.09926   0.38973   0.95720   0.00000  Uiso   1.00
C655   C     0.24663   0.23344   0.55715   0.00000  Uiso   1.00
C656   C     0.17486   0.42938   0.47910   0.00000  Uiso   1.00
C657   C     0.00910   0.59232   0.10493   0.00000  Uiso   1.00
C658   C     0.04812   0.57242   0.35211   0.00000  Uiso   1.00
C659   C     0.04808   0.57107   0.10192   0.00000  Uiso   1.00
C660   C     0.11545   0.57536   0.30575   0.00000  Uiso   1.00
C661   C     0.11751   0.57839   0.05956   0.00000  Uiso   1.00
C662   C     0.07209   0.58144   0.30570   0.00000  Uiso   1.00
C663   C     0.17650   0.42676   0.23033   0.00000  Uiso   1.00
C664   C     0.17833   0.54425   0.10470   0.00000  Uiso   1.00
C665   C     0.13573   0.55924   0.10455   0.00000  Uiso   1.00
C666   C     0.17384   0.40270   0.18373   0.00000  Uiso   1.00
C667   C     0.10943   0.54684   0.14719   0.00000  Uiso   1.00
C668   C     0.06728   0.55362   0.14744   0.00000  Uiso   1.00
C669   C     0.20946   0.45755   0.23184   0.00000  Uiso   1.00
C670   C     0.07420   0.58159   0.05689   0.00000  Uiso   1.00
C671   C     0.10689   0.40613   0.25957   0.00000  Uiso   1.00
C672   C     0.14404   0.42694   0.26907   0.00000  Uiso   1.00
C673   C     0.18010   0.54649   0.34984   0.00000  Uiso   1.00
C674   C     0.13469   0.55764   0.35038   0.00000  Uiso   1.00
C675   C     0.11003   0.54731   0.39556   0.00000  Uiso   1.00
C676   C     0.06703   0.55483   0.39667   0.00000  Uiso   1.00
C677   C     0.20761   0.46003   0.47930   0.00000  Uiso   1.00
C678   C     0.14001   0.43542   0.01174   0.00000  Uiso   1.00
C679   C     0.00993   0.59553   0.35755   0.00000  Uiso   1.00
C680   C     0.17112   0.40562   0.43283   0.00000  Uiso   1.00
C681   C     0.10357   0.41493   0.00137   0.00000  Uiso   1.00
C682   C     0.10079   0.42298   0.49470   0.00000  Uiso   1.00
C683   C     0.06904   0.57338   0.80110   0.00000  Uiso   1.00
C684   C     0.00467   0.59484   0.60664   0.00000  Uiso   1.00
C685   C     0.13963   0.43583   0.51229   0.00000  Uiso   1.00
C686   C     0.04338   0.56821   0.84531   0.00000  Uiso   1.00
C687   C     0.04708   0.57430   0.60361   0.00000  Uiso   1.00
C688   C     0.17333   0.43194   0.97425   0.00000  Uiso   1.00
C689   C     0.10070   0.41327   0.75090   0.00000  Uiso   1.00
C690   C     0.17169   0.42962   0.72820   0.00000  Uiso   1.00
C691   C     0.11718   0.57683   0.56112   0.00000  Uiso   1.00
C692   C     0.17884   0.54607   0.60302   0.00000  Uiso   1.00
C693   C     0.13305   0.55474   0.60352   0.00000  Uiso   1.00
C694   C     0.10583   0.54255   0.64529   0.00000  Uiso   1.00
C695   C     0.06324   0.54951   0.64325   0.00000  Uiso   1.00
C696   C     0.20639   0.45853   0.73050   0.00000  Uiso   1.00
C697   C     0.11207   0.56678   0.80364   0.00000  Uiso   1.00
C698   C     0.16941   0.40750   0.92952   0.00000  Uiso   1.00
C699   C     0.17627   0.54684   0.85427   0.00000  Uiso   1.00
C700   C     0.13015   0.55469   0.85203   0.00000  Uiso   1.00
C701   C     0.10493   0.54457   0.89787   0.00000  Uiso   1.00
C702   C     0.06099   0.55107   0.89495   0.00000  Uiso   1.00
C703   C     0.20728   0.46099   0.97749   0.00000  Uiso   1.00
C704   C     0.13691   0.43263   0.76314   0.00000  Uiso   1.00
C705   C     0.07297   0.58483   0.56045   0.00000  Uiso   1.00
C706   C     0.00418   0.59202   0.85318   0.00000  Uiso   1.00
C707   C     0.17208   0.40092   0.68970   0.00000  Uiso   1.00
C708   C     0.19766   0.76904   0.48936   0.00000  Uiso   1.00
C709   C     0.05445   0.67382   0.48690   0.00000  Uiso   1.00
C710   C     0.16557   0.73773   0.49222   0.00000  Uiso   1.00
C711   C     0.10166   0.71699   0.02831   0.00000  Uiso   1.00
C712   C     0.13782   0.73802   0.03222   0.00000  Uiso   1.00
C713   C     0.12941   0.69055   0.19146   0.00000  Uiso   1.00
C714   C     0.16954   0.70843   0.19795   0.00000  Uiso   1.00
C715   C     0.05488   0.67617   0.23042   0.00000  Uiso   1.00
C716   C     0.09938   0.69058   0.23398   0.00000  Uiso   1.00
C717   C     0.20200   0.76768   0.23973   0.00000  Uiso   1.00
C718   C     0.17469   0.73159   0.24625   0.00000  Uiso   1.00
C719   C     0.09662   0.69078   0.48966   0.00000  Uiso   1.00
C720   C     0.10827   0.71014   0.28219   0.00000  Uiso   1.00
C721   C     0.14607   0.73043   0.29070   0.00000  Uiso   1.00
C722   C     0.12447   0.68864   0.44492   0.00000  Uiso   1.00
C723   C     0.16002   0.71194   0.44778   0.00000  Uiso   1.00
C724   C     0.20098   0.76657   0.98631   0.00000  Uiso   1.00
C725   C     0.13712   0.73782   0.53585   0.00000  Uiso   1.00
C726   C     0.12444   0.68797   0.69340   0.00000  Uiso   1.00
C727   C     0.16105   0.70919   0.69873   0.00000  Uiso   1.00
C728   C     0.05354   0.67173   0.73230   0.00000  Uiso   1.00
C729   C     0.09480   0.68963   0.73680   0.00000  Uiso   1.00
C730   C     0.20008   0.76577   0.73809   0.00000  Uiso   1.00
C731   C     0.16818   0.73391   0.74399   0.00000  Uiso   1.00
C732   C     0.09505   0.69181   0.98269   0.00000  Uiso   1.00
C733   C     0.10332   0.71284   0.53551   0.00000  Uiso   1.00
C734   C     0.10331   0.71164   0.78256   0.00000  Uiso   1.00
C735   C     0.14068   0.73198   0.78857   0.00000  Uiso   1.00
C736   C     0.12632   0.68897   0.94386   0.00000  Uiso   1.00
C737   C     0.16541   0.70921   0.94760   0.00000  Uiso   1.00
C738   C     0.05451   0.67382   0.98024   0.00000  Uiso   1.00
C739   C     0.17039   0.73545   0.99106   0.00000  Uiso   1.00
C740   C     0.09631   0.86782   0.05473   0.00000  Uiso   1.00
C741   C     0.06749   0.89720   0.04406   0.00000  Uiso   1.00
C742   C     0.15757   0.85060   0.11177   0.00000  Uiso   1.00
C743   C     0.11401   0.86384   0.10539   0.00000  Uiso   1.00
C744   C     0.04538   0.91035   0.09134   0.00000  Uiso   1.00
C745   C     0.08850   0.87323   0.14951   0.00000  Uiso   1.00
C746   C     0.05060   0.89053   0.14071   0.00000  Uiso   1.00
C747   C     0.09312   0.86109   0.30592   0.00000  Uiso   1.00
C748   C     0.05972   0.88630   0.29677   0.00000  Uiso   1.00
C749   C     0.15899   0.85343   0.35861   0.00000  Uiso   1.00
C750   C     0.11441   0.86473   0.35463   0.00000  Uiso   1.00
C751   C     0.02153   0.94595   0.09202   0.00000  Uiso   1.00
C752   C     0.03981   0.90380   0.34069   0.00000  Uiso   1.00
C753   C     0.09274   0.87718   0.39999   0.00000  Uiso   1.00
C754   C     0.05153   0.88982   0.39297   0.00000  Uiso   1.00
C755   C     0.01968   0.94198   0.34049   0.00000  Uiso   1.00
C756   C     0.09454   0.86561   0.55692   0.00000  Uiso   1.00
C757   C     0.06263   0.89296   0.54694   0.00000  Uiso   1.00
C758   C     0.15988   0.85470   0.61102   0.00000  Uiso   1.00
C759   C     0.11483   0.86635   0.60731   0.00000  Uiso   1.00
C760   C     0.04110   0.90813   0.59058   0.00000  Uiso   1.00
C761   C     0.08891   0.87479   0.65125   0.00000  Uiso   1.00
C762   C     0.04965   0.89075   0.64093   0.00000  Uiso   1.00
C763   C     0.09136   0.86481   0.80444   0.00000  Uiso   1.00
C764   C     0.06238   0.89571   0.79695   0.00000  Uiso   1.00
C765   C     0.15764   0.85274   0.85880   0.00000  Uiso   1.00
C766   C     0.11284   0.86436   0.85435   0.00000  Uiso   1.00
C767   C     0.03997   0.90667   0.84246   0.00000  Uiso   1.00
C768   C     0.09285   0.88010   0.90063   0.00000  Uiso   1.00
C769   C     0.05179   0.89209   0.89454   0.00000  Uiso   1.00
C770   C     0.01989   0.94539   0.59140   0.00000  Uiso   1.00
C771   C     0.01619   0.94276   0.84023   0.00000  Uiso   1.00
C772   C     0.36290   0.12470   0.14524   0.00000  Uiso   1.00
C773   C     0.40467   0.11121   0.14893   0.00000  Uiso   1.00
C774   C     0.30046   0.15536   0.18446   0.00000  Uiso   1.00
C775   C     0.34520   0.14415   0.18783   0.00000  Uiso   1.00
C776   C     0.45317   0.07619   0.20994   0.00000  Uiso   1.00
C777   C     0.42200   0.10752   0.20041   0.00000  Uiso   1.00
C778   C     0.40537   0.13129   0.48458   0.00000  Uiso   1.00
C779   C     0.35213   0.11084   0.40025   0.00000  Uiso   1.00
C780   C     0.38696   0.08870   0.41079   0.00000  Uiso   1.00
C781   C     0.29929   0.15944   0.43378   0.00000  Uiso   1.00
C782   C     0.34229   0.14225   0.43595   0.00000  Uiso   1.00
C783   C     0.44922   0.07037   0.46248   0.00000  Uiso   1.00
C784   C     0.41409   0.09760   0.45414   0.00000  Uiso   1.00
C785   C     0.36902   0.15062   0.23609   0.00000  Uiso   1.00
C786   C     0.40596   0.12920   0.24554   0.00000  Uiso   1.00
C787   C     0.36997   0.15277   0.47614   0.00000  Uiso   1.00
C788   C     0.36076   0.11754   0.64550   0.00000  Uiso   1.00
C789   C     0.39697   0.09724   0.65287   0.00000  Uiso   1.00
C790   C     0.30039   0.15632   0.68150   0.00000  Uiso   1.00
C791   C     0.34410   0.14395   0.68606   0.00000  Uiso   1.00
C792   C     0.45445   0.07097   0.70940   0.00000  Uiso   1.00
C793   C     0.42159   0.10221   0.70123   0.00000  Uiso   1.00
C794   C     0.35704   0.11657   0.89313   0.00000  Uiso   1.00
C795   C     0.39600   0.09835   0.89915   0.00000  Uiso   1.00
C796   C     0.30143   0.16031   0.92998   0.00000  Uiso   1.00
C797   C     0.34494   0.14532   0.92978   0.00000  Uiso   1.00
C798   C     0.45541   0.07778   0.95716   0.00000  Uiso   1.00
C799   C     0.42143   0.10581   0.94528   0.00000  Uiso   1.00
C800   C     0.36937   0.14966   0.73055   0.00000  Uiso   1.00
C801   C     0.40616   0.12976   0.74072   0.00000  Uiso   1.00
C802   C     0.37151   0.15479   0.97190   0.00000  Uiso   1.00
C803   C     0.40984   0.13542   0.98134   0.00000  Uiso   1.00
C804   C     0.45442   0.38305   0.20542   0.00000  Uiso   1.00
C805   C     0.33793   0.30017   0.04071   0.00000  Uiso   1.00
C806   C     0.29701   0.28704   0.03743   0.00000  Uiso   1.00
C807   C     0.35128   0.26078   0.11975   0.00000  Uiso   1.00
C808   C     0.30956   0.25269   0.12118   0.00000  Uiso   1.00
C809   C     0.40952   0.29916   0.07805   0.00000  Uiso   1.00
C810   C     0.36516   0.28557   0.07911   0.00000  Uiso   1.00
C811   C     0.28354   0.26190   0.07639   0.00000  Uiso   1.00
C812   C     0.33797   0.30158   0.28543   0.00000  Uiso   1.00
C813   C     0.29806   0.28517   0.27756   0.00000  Uiso   1.00
C814   C     0.34694   0.26760   0.37134   0.00000  Uiso   1.00
C815   C     0.30748   0.25421   0.36535   0.00000  Uiso   1.00
C816   C     0.40991   0.30094   0.32946   0.00000  Uiso   1.00
C817   C     0.36329   0.29193   0.33095   0.00000  Uiso   1.00
C818   C     0.44849   0.38007   0.45721   0.00000  Uiso   1.00
C819   C     0.28307   0.25984   0.31691   0.00000  Uiso   1.00
C820   C     0.25012   0.23331   0.06565   0.00000  Uiso   1.00
C821   C     0.38384   0.39946   0.18911   0.00000  Uiso   1.00
C822   C     0.45392   0.38470   0.95488   0.00000  Uiso   1.00
C823   C     0.34139   0.29303   0.53270   0.00000  Uiso   1.00
C824   C     0.30127   0.28075   0.52565   0.00000  Uiso   1.00
C825   C     0.34776   0.26023   0.61817   0.00000  Uiso   1.00
C826   C     0.30757   0.24847   0.61302   0.00000  Uiso   1.00
C827   C     0.40913   0.29241   0.57690   0.00000  Uiso   1.00
C828   C     0.36539   0.28195   0.57769   0.00000  Uiso   1.00
C829   C     0.28421   0.25542   0.56655   0.00000  Uiso   1.00
C830   C     0.33905   0.30148   0.78615   0.00000  Uiso   1.00
C831   C     0.29814   0.28770   0.77928   0.00000  Uiso   1.00
C832   C     0.34389   0.26895   0.87345   0.00000  Uiso   1.00
C833   C     0.30141   0.25848   0.86961   0.00000  Uiso   1.00
C834   C     0.40854   0.29722   0.83062   0.00000  Uiso   1.00
C835   C     0.36307   0.28815   0.82980   0.00000  Uiso   1.00
C836   C     0.27995   0.26367   0.81918   0.00000  Uiso   1.00
C837   C     0.44830   0.37962   0.70749   0.00000  Uiso   1.00
C838   C     0.42816   0.44822   0.23201   0.00000  Uiso   1.00
C839   C     0.28941   0.57832   0.35152   0.00000  Uiso   1.00
C840   C     0.36611   0.45249   0.41745   0.00000  Uiso   1.00
C841   C     0.34849   0.42356   0.19743   0.00000  Uiso   1.00
C842   C     0.39439   0.42171   0.41232   0.00000  Uiso   1.00
C843   C     0.31719   0.48290   0.22871   0.00000  Uiso   1.00
C844   C     0.35304   0.45848   0.22412   0.00000  Uiso   1.00
C845   C     0.42394   0.41318   0.20556   0.00000  Uiso   1.00
C846   C     0.28992   0.57715   0.10698   0.00000  Uiso   1.00
C847   C     0.41917   0.41232   0.45805   0.00000  Uiso   1.00
C848   C     0.31784   0.49014   0.47281   0.00000  Uiso   1.00
C849   C     0.35746   0.46855   0.46742   0.00000  Uiso   1.00
C850   C     0.39235   0.47062   0.23992   0.00000  Uiso   1.00
C851   C     0.39333   0.47556   0.99238   0.00000  Uiso   1.00
C852   C     0.38371   0.45972   0.51103   0.00000  Uiso   1.00
C853   C     0.34815   0.42922   0.94591   0.00000  Uiso   1.00
C854   C     0.38617   0.46591   0.75952   0.00000  Uiso   1.00
C855   C     0.41769   0.43665   0.75562   0.00000  Uiso   1.00
C856   C     0.31617   0.48922   0.72622   0.00000  Uiso   1.00
C857   C     0.35335   0.46650   0.72279   0.00000  Uiso   1.00
C858   C     0.28554   0.57952   0.85115   0.00000  Uiso   1.00
C859   C     0.38110   0.40902   0.67573   0.00000  Uiso   1.00
C860   C     0.28759   0.58031   0.60484   0.00000  Uiso   1.00
C861   C     0.38305   0.40751   0.93455   0.00000  Uiso   1.00
C862   C     0.31718   0.48987   0.97553   0.00000  Uiso   1.00
C863   C     0.35407   0.46562   0.96977   0.00000  Uiso   1.00
C864   C     0.42289   0.41693   0.95546   0.00000  Uiso   1.00
C865   C     0.35130   0.43846   0.68082   0.00000  Uiso   1.00
C866   C     0.41629   0.40963   0.71087   0.00000  Uiso   1.00
C867   C     0.42842   0.45103   0.98735   0.00000  Uiso   1.00
C868   C     0.41656   0.43500   0.50538   0.00000  Uiso   1.00
C869   C     0.35816   0.59425   0.88095   0.00000  Uiso   1.00
C870   C     0.31685   0.61242   0.35647   0.00000  Uiso   1.00
C871   C     0.43879   0.78250   0.22839   0.00000  Uiso   1.00
C872   C     0.40751   0.76991   0.43569   0.00000  Uiso   1.00
C873   C     0.41246   0.77481   0.18581   0.00000  Uiso   1.00
C874   C     0.43353   0.78164   0.47794   0.00000  Uiso   1.00
C875   C     0.32269   0.63810   0.31163   0.00000  Uiso   1.00
C876   C     0.38371   0.63635   0.15112   0.00000  Uiso   1.00
C877   C     0.35682   0.66349   0.06526   0.00000  Uiso   1.00
C878   C     0.42807   0.68009   0.10580   0.00000  Uiso   1.00
C879   C     0.38589   0.66343   0.10883   0.00000  Uiso   1.00
C880   C     0.36843   0.78157   0.18782   0.00000  Uiso   1.00
C881   C     0.34409   0.61446   0.40191   0.00000  Uiso   1.00
C882   C     0.47690   0.75993   0.23226   0.00000  Uiso   1.00
C883   C     0.37825   0.64075   0.40144   0.00000  Uiso   1.00
C884   C     0.35448   0.66496   0.31201   0.00000  Uiso   1.00
C885   C     0.42786   0.68165   0.35481   0.00000  Uiso   1.00
C886   C     0.38550   0.66505   0.35585   0.00000  Uiso   1.00
C887   C     0.47434   0.76036   0.48031   0.00000  Uiso   1.00
C888   C     0.36374   0.77652   0.43805   0.00000  Uiso   1.00
C889   C     0.32519   0.63500   0.06425   0.00000  Uiso   1.00
C890   C     0.32140   0.60805   0.10864   0.00000  Uiso   1.00
C891   C     0.35093   0.60868   0.15167   0.00000  Uiso   1.00
C892   C     0.34752   0.79905   0.48110   0.00000  Uiso   1.00
C893   C     0.47186   0.76128   0.98084   0.00000  Uiso   1.00
C894   C     0.39122   0.61719   0.88658   0.00000  Uiso   1.00
C895   C     0.43486   0.78649   0.97739   0.00000  Uiso   1.00
C896   C     0.34244   0.61358   0.65710   0.00000  Uiso   1.00
C897   C     0.35955   0.77146   0.69943   0.00000  Uiso   1.00
C898   C     0.32198   0.60577   0.85227   0.00000  Uiso   1.00
C899   C     0.32048   0.64262   0.82811   0.00000  Uiso   1.00
C900   C     0.37810   0.63757   0.65533   0.00000  Uiso   1.00
C901   C     0.34521   0.79458   0.74112   0.00000  Uiso   1.00
C902   C     0.35661   0.66627   0.56817   0.00000  Uiso   1.00
C903   C     0.42774   0.68051   0.60836   0.00000  Uiso   1.00
C904   C     0.38510   0.66361   0.61048   0.00000  Uiso   1.00
C905   C     0.40281   0.76839   0.68906   0.00000  Uiso   1.00
C906   C     0.32159   0.64175   0.56836   0.00000  Uiso   1.00
C907   C     0.47202   0.76012   0.73077   0.00000  Uiso   1.00
C908   C     0.35840   0.66554   0.82924   0.00000  Uiso   1.00
C909   C     0.43361   0.78108   0.72807   0.00000  Uiso   1.00
C910   C     0.43050   0.67506   0.86061   0.00000  Uiso   1.00
C911   C     0.39070   0.65348   0.86229   0.00000  Uiso   1.00
C912   C     0.36464   0.78594   0.93424   0.00000  Uiso   1.00
C913   C     0.31656   0.61281   0.61013   0.00000  Uiso   1.00
C914   C     0.40736   0.77817   0.93276   0.00000  Uiso   1.00
C915   C     0.35177   0.80172   0.23351   0.00000  Uiso   1.00
C916   C     0.26649   0.89289   0.11282   0.00000  Uiso   1.00
C917   C     0.34283   0.97702   0.13238   0.00000  Uiso   1.00
C918   C     0.30669   0.95282   0.13863   0.00000  Uiso   1.00
C919   C     0.36464   0.93555   0.05542   0.00000  Uiso   1.00
C920   C     0.32793   0.91403   0.06033   0.00000  Uiso   1.00
C921   C     0.41261   0.98906   0.08799   0.00000  Uiso   1.00
C922   C     0.37226   0.96753   0.09012   0.00000  Uiso   1.00
C923   C     0.29996   0.92178   0.10365   0.00000  Uiso   1.00
C924   C     0.33834   0.98197   0.37225   0.00000  Uiso   1.00
C925   C     0.30217   0.95981   0.38202   0.00000  Uiso   1.00
C926   C     0.36805   0.93443   0.31083   0.00000  Uiso   1.00
C927   C     0.33179   0.91287   0.31672   0.00000  Uiso   1.00
C928   C     0.38018   0.81321   0.27559   0.00000  Uiso   1.00
C929   C     0.37093   0.97020   0.33744   0.00000  Uiso   1.00
C930   C     0.29862   0.92387   0.35569   0.00000  Uiso   1.00
C931   C     0.41344   0.98858   0.33921   0.00000  Uiso   1.00
C932   C     0.42269   0.80345   0.27354   0.00000  Uiso   1.00
C933   C     0.41943   0.80438   0.02469   0.00000  Uiso   1.00
C934   C     0.37723   0.81025   0.02834   0.00000  Uiso   1.00
C935   C     0.30319   0.80830   0.48445   0.00000  Uiso   1.00
C936   C     0.26498   0.89668   0.36168   0.00000  Uiso   1.00
C937   C     0.30625   0.81002   0.23793   0.00000  Uiso   1.00
C938   C     0.41871   0.80479   0.77003   0.00000  Uiso   1.00
C939   C     0.41715   0.80569   0.52041   0.00000  Uiso   1.00
C940   C     0.37405   0.93514   0.63469   0.00000  Uiso   1.00
C941   C     0.33580   0.91692   0.64645   0.00000  Uiso   1.00
C942   C     0.30303   0.81093   0.98759   0.00000  Uiso   1.00
C943   C     0.34200   0.97077   0.55948   0.00000  Uiso   1.00
C944   C     0.30433   0.95006   0.56651   0.00000  Uiso   1.00
C945   C     0.37806   0.96165   0.59238   0.00000  Uiso   1.00
C946   C     0.26573   0.89532   0.61352   0.00000  Uiso   1.00
C947   C     0.30113   0.92416   0.61294   0.00000  Uiso   1.00
C948   C     0.35015   0.96806   0.89484   0.00000  Uiso   1.00
C949   C     0.31360   0.94803   0.90036   0.00000  Uiso   1.00
C950   C     0.34042   0.96711   0.79750   0.00000  Uiso   1.00
C951   C     0.30331   0.94800   0.80457   0.00000  Uiso   1.00
C952   C     0.41204   0.99038   0.83924   0.00000  Uiso   1.00
C953   C     0.36741   0.97562   0.84286   0.00000  Uiso   1.00
C954   C     0.29470   0.93136   0.85504   0.00000  Uiso   1.00
C955   C     0.37402   0.81472   0.52181   0.00000  Uiso   1.00
C956   C     0.30230   0.80838   0.74055   0.00000  Uiso   1.00
C957   C     0.41722   0.98219   0.58697   0.00000  Uiso   1.00
C958   C     0.26544   0.89654   0.85889   0.00000  Uiso   1.00
C959   C     0.37468   0.81127   0.77647   0.00000  Uiso   1.00
C960   C     0.34792   0.80214   0.98383   0.00000  Uiso   1.00
C961   C     0.60315   0.18673   0.36428   0.00000  Uiso   1.00
C962   C     0.55782   0.19211   0.09957   0.00000  Uiso   1.00
C963   C     0.67696   0.18646   0.32769   0.00000  Uiso   1.00
C964   C     0.67425   0.17762   0.07446   0.00000  Uiso   1.00
C965   C     0.59787   0.17635   0.09690   0.00000  Uiso   1.00
C966   C     0.67815   0.04371   0.19355   0.00000  Uiso   1.00
C967   C     0.55828   0.02972   0.20978   0.00000  Uiso   1.00
C968   C     0.60152   0.04487   0.21028   0.00000  Uiso   1.00
C969   C     0.71595   0.10564   0.20002   0.00000  Uiso   1.00
C970   C     0.67863   0.08283   0.20367   0.00000  Uiso   1.00
C971   C     0.60274   0.08338   0.21676   0.00000  Uiso   1.00
C972   C     0.64178   0.10248   0.21499   0.00000  Uiso   1.00
C973   C     0.61560   0.06612   0.40829   0.00000  Uiso   1.00
C974   C     0.65628   0.07870   0.40282   0.00000  Uiso   1.00
C975   C     0.63932   0.02319   0.19857   0.00000  Uiso   1.00
C976   C     0.60180   0.04622   0.45656   0.00000  Uiso   1.00
C977   C     0.72346   0.09883   0.44701   0.00000  Uiso   1.00
C978   C     0.68665   0.07184   0.44632   0.00000  Uiso   1.00
C979   C     0.55863   0.03303   0.45937   0.00000  Uiso   1.00
C980   C     0.67344   0.04990   0.49319   0.00000  Uiso   1.00
C981   C     0.63158   0.03744   0.49703   0.00000  Uiso   1.00
C982   C     0.63251   0.19470   0.07301   0.00000  Uiso   1.00
C983   C     0.56048   0.19948   0.35862   0.00000  Uiso   1.00
C984   C     0.62640   0.18617   0.82874   0.00000  Uiso   1.00
C985   C     0.63142   0.19118   0.57573   0.00000  Uiso   1.00
C986   C     0.59758   0.18106   0.54162   0.00000  Uiso   1.00
C987   C     0.61511   0.06626   0.66185   0.00000  Uiso   1.00
C988   C     0.65776   0.07413   0.65381   0.00000  Uiso   1.00
C989   C     0.56021   0.02805   0.70692   0.00000  Uiso   1.00
C990   C     0.60206   0.04743   0.70747   0.00000  Uiso   1.00
C991   C     0.72210   0.09717   0.70013   0.00000  Uiso   1.00
C992   C     0.68696   0.06815   0.69675   0.00000  Uiso   1.00
C993   C     0.63141   0.03480   0.74468   0.00000  Uiso   1.00
C994   C     0.67310   0.04952   0.74325   0.00000  Uiso   1.00
C995   C     0.61673   0.07143   0.90881   0.00000  Uiso   1.00
C996   C     0.65854   0.08187   0.90505   0.00000  Uiso   1.00
C997   C     0.55796   0.03742   0.95889   0.00000  Uiso   1.00
C998   C     0.60169   0.05153   0.95378   0.00000  Uiso   1.00
C999   C     0.72321   0.09988   0.94925   0.00000  Uiso   1.00
C1000  C     0.68665   0.07483   0.94841   0.00000  Uiso   1.00
C1001  C     0.67071   0.17583   0.82682   0.00000  Uiso   1.00
C1002  C     0.67393   0.17697   0.57207   0.00000  Uiso   1.00
C1003  C     0.59965   0.18525   0.78514   0.00000  Uiso   1.00
C1004  C     0.63030   0.04172   0.99659   0.00000  Uiso   1.00
C1005  C     0.67224   0.05408   0.99417   0.00000  Uiso   1.00
C1006  C     0.55854   0.19799   0.54960   0.00000  Uiso   1.00
C1007  C     0.60885   0.19867   0.87665   0.00000  Uiso   1.00
C1008  C     0.63021   0.35915   0.42235   0.00000  Uiso   1.00
C1009  C     0.59992   0.38483   0.25535   0.00000  Uiso   1.00
C1010  C     0.59685   0.35859   0.21178   0.00000  Uiso   1.00
C1011  C     0.62822   0.23107   0.04837   0.00000  Uiso   1.00
C1012  C     0.58827   0.24816   0.04904   0.00000  Uiso   1.00
C1013  C     0.59654   0.36413   0.45991   0.00000  Uiso   1.00
C1014  C     0.55639   0.34305   0.45754   0.00000  Uiso   1.00
C1015  C     0.51493   0.25357   0.08108   0.00000  Uiso   1.00
C1016  C     0.55308   0.22981   0.07627   0.00000  Uiso   1.00
C1017  C     0.55685   0.33956   0.20841   0.00000  Uiso   1.00
C1018  C     0.58347   0.24311   0.28726   0.00000  Uiso   1.00
C1019  C     0.62496   0.22975   0.29013   0.00000  Uiso   1.00
C1020  C     0.51589   0.25289   0.32865   0.00000  Uiso   1.00
C1021  C     0.55284   0.22900   0.32290   0.00000  Uiso   1.00
C1022  C     0.62938   0.35352   0.17471   0.00000  Uiso   1.00
C1023  C     0.66672   0.37296   0.18301   0.00000  Uiso   1.00
C1024  C     0.66635   0.38054   0.43065   0.00000  Uiso   1.00
C1025  C     0.60477   0.37512   0.00253   0.00000  Uiso   1.00
C1026  C     0.63423   0.20200   0.32753   0.00000  Uiso   1.00
C1027  C     0.63913   0.39898   0.00735   0.00000  Uiso   1.00
C1028  C     0.62235   0.35825   0.91258   0.00000  Uiso   1.00
C1029  C     0.59508   0.35552   0.95656   0.00000  Uiso   1.00
C1030  C     0.62058   0.36402   0.66463   0.00000  Uiso   1.00
C1031  C     0.58965   0.36507   0.70592   0.00000  Uiso   1.00
C1032  C     0.56933   0.21479   0.88023   0.00000  Uiso   1.00
C1033  C     0.55437   0.33784   0.95494   0.00000  Uiso   1.00
C1034  C     0.59592   0.38990   0.74869   0.00000  Uiso   1.00
C1035  C     0.56023   0.20428   0.78485   0.00000  Uiso   1.00
C1036  C     0.51765   0.25398   0.58197   0.00000  Uiso   1.00
C1037  C     0.55246   0.22711   0.58831   0.00000  Uiso   1.00
C1038  C     0.58596   0.23229   0.62820   0.00000  Uiso   1.00
C1039  C     0.55235   0.34357   0.70408   0.00000  Uiso   1.00
C1040  C     0.65653   0.38227   0.91600   0.00000  Uiso   1.00
C1041  C     0.54813   0.22372   0.83294   0.00000  Uiso   1.00
C1042  C     0.51445   0.25284   0.82936   0.00000  Uiso   1.00
C1043  C     0.66123   0.38239   0.67363   0.00000  Uiso   1.00
C1044  C     0.62540   0.21656   0.61906   0.00000  Uiso   1.00
C1045  C     0.59992   0.39063   0.50232   0.00000  Uiso   1.00
C1046  C     0.62310   0.57958   0.31022   0.00000  Uiso   1.00
C1047  C     0.58105   0.53790   0.05650   0.00000  Uiso   1.00
C1048  C     0.65584   0.51888   0.08974   0.00000  Uiso   1.00
C1049  C     0.61103   0.53426   0.09758   0.00000  Uiso   1.00
C1050  C     0.59690   0.54781   0.14730   0.00000  Uiso   1.00
C1051  C     0.56107   0.57227   0.15356   0.00000  Uiso   1.00
C1052  C     0.70045   0.43360   0.21635   0.00000  Uiso   1.00
C1053  C     0.54971   0.56631   0.05804   0.00000  Uiso   1.00
C1054  C     0.65823   0.52034   0.34268   0.00000  Uiso   1.00
C1055  C     0.62154   0.54530   0.34460   0.00000  Uiso   1.00
C1056  C     0.66753   0.40908   0.47163   0.00000  Uiso   1.00
C1057  C     0.58958   0.53989   0.38425   0.00000  Uiso   1.00
C1058  C     0.55628   0.56639   0.38758   0.00000  Uiso   1.00
C1059  C     0.70172   0.43824   0.47113   0.00000  Uiso   1.00
C1060  C     0.54371   0.58810   0.10579   0.00000  Uiso   1.00
C1061  C     0.66919   0.40251   0.22161   0.00000  Uiso   1.00
C1062  C     0.63701   0.40533   0.26199   0.00000  Uiso   1.00
C1063  C     0.55778   0.59960   0.35405   0.00000  Uiso   1.00
C1064  C     0.66441   0.40863   0.71839   0.00000  Uiso   1.00
C1065  C     0.55728   0.56925   0.80939   0.00000  Uiso   1.00
C1066  C     0.62569   0.58324   0.56342   0.00000  Uiso   1.00
C1067  C     0.63335   0.41058   0.75831   0.00000  Uiso   1.00
C1068  C     0.66172   0.52443   0.59294   0.00000  Uiso   1.00
C1069  C     0.62349   0.54753   0.59151   0.00000  Uiso   1.00
C1070  C     0.58794   0.53484   0.62015   0.00000  Uiso   1.00
C1071  C     0.55527   0.56217   0.62790   0.00000  Uiso   1.00
C1072  C     0.69988   0.43795   0.71869   0.00000  Uiso   1.00
C1073  C     0.59143   0.54295   0.80384   0.00000  Uiso   1.00
C1074  C     0.58200   0.58585   0.90236   0.00000  Uiso   1.00
C1075  C     0.66286   0.52337   0.84324   0.00000  Uiso   1.00
C1076  C     0.62128   0.54045   0.84794   0.00000  Uiso   1.00
C1077  C     0.61522   0.56112   0.89533   0.00000  Uiso   1.00
C1078  C     0.69806   0.43532   0.96331   0.00000  Uiso   1.00
C1079  C     0.63578   0.41137   0.51020   0.00000  Uiso   1.00
C1080  C     0.66806   0.40345   0.96471   0.00000  Uiso   1.00
C1081  C     0.55527   0.59407   0.85665   0.00000  Uiso   1.00
C1082  C     0.55747   0.59931   0.60127   0.00000  Uiso   1.00
C1083  C     0.65021   0.71850   0.02300   0.00000  Uiso   1.00
C1084  C     0.52517   0.62703   0.10366   0.00000  Uiso   1.00
C1085  C     0.64838   0.69785   0.18018   0.00000  Uiso   1.00
C1086  C     0.68170   0.72513   0.16997   0.00000  Uiso   1.00
C1087  C     0.57850   0.70225   0.23019   0.00000  Uiso   1.00
C1088  C     0.62565   0.70245   0.22933   0.00000  Uiso   1.00
C1089  C     0.71827   0.78144   0.21344   0.00000  Uiso   1.00
C1090  C     0.70068   0.74213   0.21658   0.00000  Uiso   1.00
C1091  C     0.52672   0.63094   0.35633   0.00000  Uiso   1.00
C1092  C     0.64729   0.71833   0.27380   0.00000  Uiso   1.00
C1093  C     0.68771   0.72876   0.26697   0.00000  Uiso   1.00
C1094  C     0.64633   0.70639   0.43183   0.00000  Uiso   1.00
C1095  C     0.68115   0.72986   0.42524   0.00000  Uiso   1.00
C1096  C     0.57968   0.70563   0.48272   0.00000  Uiso   1.00
C1097  C     0.62681   0.70887   0.48070   0.00000  Uiso   1.00
C1098  C     0.72455   0.78061   0.46959   0.00000  Uiso   1.00
C1099  C     0.70282   0.74428   0.47182   0.00000  Uiso   1.00
C1100  C     0.69262   0.72662   0.01415   0.00000  Uiso   1.00
C1101  C     0.58987   0.60547   0.31563   0.00000  Uiso   1.00
C1102  C     0.65029   0.71873   0.52756   0.00000  Uiso   1.00
C1103  C     0.52969   0.63077   0.85632   0.00000  Uiso   1.00
C1104  C     0.64545   0.71080   0.67740   0.00000  Uiso   1.00
C1105  C     0.68058   0.73408   0.66957   0.00000  Uiso   1.00
C1106  C     0.57814   0.70988   0.73189   0.00000  Uiso   1.00
C1107  C     0.62408   0.71299   0.72822   0.00000  Uiso   1.00
C1108  C     0.72583   0.77973   0.71906   0.00000  Uiso   1.00
C1109  C     0.70449   0.74129   0.71548   0.00000  Uiso   1.00
C1110  C     0.52645   0.62892   0.60624   0.00000  Uiso   1.00
C1111  C     0.65029   0.72037   0.77353   0.00000  Uiso   1.00
C1112  C     0.69337   0.72380   0.76471   0.00000  Uiso   1.00
C1113  C     0.64458   0.70917   0.92478   0.00000  Uiso   1.00
C1114  C     0.67984   0.73216   0.91942   0.00000  Uiso   1.00
C1115  C     0.57631   0.71142   0.97784   0.00000  Uiso   1.00
C1116  C     0.62441   0.71094   0.97546   0.00000  Uiso   1.00
C1117  C     0.71952   0.78284   0.96458   0.00000  Uiso   1.00
C1118  C     0.70143   0.74450   0.96389   0.00000  Uiso   1.00
C1119  C     0.69242   0.72614   0.52065   0.00000  Uiso   1.00
C1120  C     0.59113   0.60802   0.56496   0.00000  Uiso   1.00
C1121  C     0.61986   0.91475   0.04548   0.00000  Uiso   1.00
C1122  C     0.58022   0.93151   0.04154   0.00000  Uiso   1.00
C1123  C     0.67236   0.87215   0.09037   0.00000  Uiso   1.00
C1124  C     0.63171   0.88879   0.08620   0.00000  Uiso   1.00
C1125  C     0.51507   0.94896   0.08488   0.00000  Uiso   1.00
C1126  C     0.54910   0.92179   0.08007   0.00000  Uiso   1.00
C1127  C     0.59951   0.87868   0.12338   0.00000  Uiso   1.00
C1128  C     0.55930   0.89307   0.12064   0.00000  Uiso   1.00
C1129  C     0.59653   0.86402   0.34452   0.00000  Uiso   1.00
C1130  C     0.55803   0.88537   0.33825   0.00000  Uiso   1.00
C1131  C     0.67550   0.86355   0.34148   0.00000  Uiso   1.00
C1132  C     0.63500   0.88370   0.34156   0.00000  Uiso   1.00
C1133  C     0.52202   0.94756   0.33014   0.00000  Uiso   1.00
C1134  C     0.55991   0.92547   0.33380   0.00000  Uiso   1.00
C1135  C     0.63492   0.92334   0.33542   0.00000  Uiso   1.00
C1136  C     0.59926   0.94432   0.32996   0.00000  Uiso   1.00
C1137  C     0.59951   0.86752   0.63469   0.00000  Uiso   1.00
C1138  C     0.56473   0.89294   0.63167   0.00000  Uiso   1.00
C1139  C     0.67312   0.85815   0.59162   0.00000  Uiso   1.00
C1140  C     0.62762   0.86661   0.58964   0.00000  Uiso   1.00
C1141  C     0.52749   0.94690   0.58356   0.00000  Uiso   1.00
C1142  C     0.55624   0.91488   0.58343   0.00000  Uiso   1.00
C1143  C     0.61373   0.88030   0.53906   0.00000  Uiso   1.00
C1144  C     0.57907   0.90548   0.53470   0.00000  Uiso   1.00
C1145  C     0.61942   0.90909   0.79525   0.00000  Uiso   1.00
C1146  C     0.57954   0.92255   0.79389   0.00000  Uiso   1.00
C1147  C     0.67466   0.86741   0.83866   0.00000  Uiso   1.00
C1148  C     0.63041   0.88166   0.83713   0.00000  Uiso   1.00
C1149  C     0.51636   0.94466   0.83910   0.00000  Uiso   1.00
C1150  C     0.55071   0.91555   0.83455   0.00000  Uiso   1.00
C1151  C     0.60168   0.87110   0.87664   0.00000  Uiso   1.00
C1152  C     0.56105   0.88871   0.87595   0.00000  Uiso   1.00
C1153  C     0.91726   0.10890   0.00941   0.00000  Uiso   1.00
C1154  C     0.89869   0.14845   0.16540   0.00000  Uiso   1.00
C1155  C     0.93983   0.13510   0.17520   0.00000  Uiso   1.00
C1156  C     0.82285   0.15498   0.19865   0.00000  Uiso   1.00
C1157  C     0.86555   0.13883   0.20352   0.00000  Uiso   1.00
C1158  C     0.97994   0.08087   0.21803   0.00000  Uiso   1.00
C1159  C     0.94824   0.11092   0.22116   0.00000  Uiso   1.00
C1160  C     0.89861   0.15134   0.41226   0.00000  Uiso   1.00
C1161  C     0.93950   0.13506   0.41887   0.00000  Uiso   1.00
C1162  C     0.82506   0.15408   0.45108   0.00000  Uiso   1.00
C1163  C     0.86923   0.14436   0.45325   0.00000  Uiso   1.00
C1164  C     0.98303   0.08162   0.46004   0.00000  Uiso   1.00
C1165  C     0.95058   0.11253   0.46511   0.00000  Uiso   1.00
C1166  C     0.87471   0.11738   0.25032   0.00000  Uiso   1.00
C1167  C     0.91548   0.10604   0.26007   0.00000  Uiso   1.00
C1168  C     0.87749   0.12241   0.00072   0.00000  Uiso   1.00
C1169  C     0.88311   0.12940   0.50158   0.00000  Uiso   1.00
C1170  C     0.90019   0.15422   0.66822   0.00000  Uiso   1.00
C1171  C     0.94015   0.13644   0.67503   0.00000  Uiso   1.00
C1172  C     0.82380   0.15564   0.70367   0.00000  Uiso   1.00
C1173  C     0.86849   0.14512   0.70715   0.00000  Uiso   1.00
C1174  C     0.98306   0.08207   0.71405   0.00000  Uiso   1.00
C1175  C     0.95015   0.11462   0.71955   0.00000  Uiso   1.00
C1176  C     0.90115   0.15668   0.92096   0.00000  Uiso   1.00
C1177  C     0.94150   0.14003   0.92817   0.00000  Uiso   1.00
C1178  C     0.82403   0.15840   0.95177   0.00000  Uiso   1.00
C1179  C     0.86791   0.14452   0.95451   0.00000  Uiso   1.00
C1180  C     0.98214   0.08225   0.96561   0.00000  Uiso   1.00
C1181  C     0.94962   0.11343   0.97124   0.00000  Uiso   1.00
C1182  C     0.87936   0.12597   0.75514   0.00000  Uiso   1.00
C1183  C     0.92080   0.11286   0.76276   0.00000  Uiso   1.00
C1184  C     0.92113   0.11281   0.50723   0.00000  Uiso   1.00
C1185  C     0.92765   0.00148   0.58761   0.00000  Uiso   1.00
C1186  C     0.92726   0.00098   0.84054   0.00000  Uiso   1.00
C1187  C     0.86313   0.29576   0.11943   0.00000  Uiso   1.00
C1188  C     0.82893   0.27332   0.12451   0.00000  Uiso   1.00
C1189  C     0.84391   0.31584   0.03155   0.00000  Uiso   1.00
C1190  C     0.80749   0.29312   0.03345   0.00000  Uiso   1.00
C1191  C     0.91307   0.33488   0.06985   0.00000  Uiso   1.00
C1192  C     0.87192   0.31706   0.07381   0.00000  Uiso   1.00
C1193  C     0.77506   0.23376   0.07804   0.00000  Uiso   1.00
C1194  C     0.80116   0.26834   0.08035   0.00000  Uiso   1.00
C1195  C     0.84850   0.30869   0.37656   0.00000  Uiso   1.00
C1196  C     0.81039   0.28846   0.38034   0.00000  Uiso   1.00
C1197  C     0.83910   0.31898   0.28210   0.00000  Uiso   1.00
C1198  C     0.80319   0.29598   0.28136   0.00000  Uiso   1.00
C1199  C     0.91024   0.33263   0.32580   0.00000  Uiso   1.00
C1200  C     0.86600   0.32126   0.32800   0.00000  Uiso   1.00
C1201  C     0.77021   0.23737   0.32811   0.00000  Uiso   1.00
C1202  C     0.79284   0.27462   0.32995   0.00000  Uiso   1.00
C1203  C     0.83855   0.31835   0.60728   0.00000  Uiso   1.00
C1204  C     0.80291   0.29446   0.61098   0.00000  Uiso   1.00
C1205  C     0.87236   0.27502   0.54490   0.00000  Uiso   1.00
C1206  C     0.83774   0.25255   0.54660   0.00000  Uiso   1.00
C1207  C     0.90859   0.33391   0.57200   0.00000  Uiso   1.00
C1208  C     0.87216   0.30950   0.57199   0.00000  Uiso   1.00
C1209  C     0.76941   0.23059   0.57688   0.00000  Uiso   1.00
C1210  C     0.80263   0.26063   0.57760   0.00000  Uiso   1.00
C1211  C     0.83712   0.31968   0.85338   0.00000  Uiso   1.00
C1212  C     0.79782   0.30136   0.84691   0.00000  Uiso   1.00
C1213  C     0.86678   0.27774   0.78177   0.00000  Uiso   1.00
C1214  C     0.82941   0.25922   0.78097   0.00000  Uiso   1.00
C1215  C     0.91101   0.32724   0.81946   0.00000  Uiso   1.00
C1216  C     0.87022   0.30887   0.81864   0.00000  Uiso   1.00
C1217  C     0.76713   0.23460   0.82205   0.00000  Uiso   1.00
C1218  C     0.79626   0.26744   0.81629   0.00000  Uiso   1.00
C1219  C     0.91968   0.47067   0.24775   0.00000  Uiso   1.00
C1220  C     0.87713   0.47627   0.25615   0.00000  Uiso   1.00
C1221  C     0.95850   0.41807   0.19744   0.00000  Uiso   1.00
C1222  C     0.86906   0.48057   0.16012   0.00000  Uiso   1.00
C1223  C     0.90717   0.46179   0.15385   0.00000  Uiso   1.00
C1224  C     0.80342   0.48226   0.21391   0.00000  Uiso   1.00
C1225  C     0.85015   0.47903   0.21023   0.00000  Uiso   1.00
C1226  C     0.93207   0.45358   0.19928   0.00000  Uiso   1.00
C1227  C     0.87815   0.47314   0.00369   0.00000  Uiso   1.00
C1228  C     0.96215   0.41995   0.44640   0.00000  Uiso   1.00
C1229  C     0.87495   0.48415   0.40884   0.00000  Uiso   1.00
C1230  C     0.91171   0.46384   0.39927   0.00000  Uiso   1.00
C1231  C     0.80891   0.48582   0.46491   0.00000  Uiso   1.00
C1232  C     0.85470   0.47959   0.45878   0.00000  Uiso   1.00
C1233  C     0.93819   0.45554   0.44468   0.00000  Uiso   1.00
C1234  C     0.75812   0.56698   0.33930   0.00000  Uiso   1.00
C1235  C     0.76034   0.56443   0.09239   0.00000  Uiso   1.00
C1236  C     0.92569   0.47021   0.49297   0.00000  Uiso   1.00
C1237  C     0.78357   0.59993   0.09081   0.00000  Uiso   1.00
C1238  C     0.95956   0.41799   0.69657   0.00000  Uiso   1.00
C1239  C     0.87348   0.48901   0.66761   0.00000  Uiso   1.00
C1240  C     0.91198   0.47007   0.65788   0.00000  Uiso   1.00
C1241  C     0.80819   0.48641   0.71481   0.00000  Uiso   1.00
C1242  C     0.85278   0.48223   0.71463   0.00000  Uiso   1.00
C1243  C     0.93354   0.45321   0.70116   0.00000  Uiso   1.00
C1244  C     0.76123   0.56803   0.59116   0.00000  Uiso   1.00
C1245  C     0.92087   0.46441   0.75380   0.00000  Uiso   1.00
C1246  C     0.88219   0.47629   0.50362   0.00000  Uiso   1.00
C1247  C     0.87815   0.47304   0.75914   0.00000  Uiso   1.00
C1248  C     0.96239   0.41772   0.94487   0.00000  Uiso   1.00
C1249  C     0.87302   0.48518   0.91053   0.00000  Uiso   1.00
C1250  C     0.91044   0.46291   0.89993   0.00000  Uiso   1.00
C1251  C     0.80639   0.48090   0.96506   0.00000  Uiso   1.00
C1252  C     0.85223   0.47926   0.96048   0.00000  Uiso   1.00
C1253  C     0.93764   0.45357   0.94580   0.00000  Uiso   1.00
C1254  C     0.92301   0.46755   0.99640   0.00000  Uiso   1.00
C1255  C     0.76337   0.56807   0.84222   0.00000  Uiso   1.00
C1256  C     0.80859   0.61008   0.04630   0.00000  Uiso   1.00
C1257  C     0.92055   0.78368   0.01111   0.00000  Uiso   1.00
C1258  C     0.80046   0.62191   0.29769   0.00000  Uiso   1.00
C1259  C     0.79180   0.61910   0.39272   0.00000  Uiso   1.00
C1260  C     0.92431   0.78400   0.43922   0.00000  Uiso   1.00
C1261  C     0.83253   0.63014   0.15209   0.00000  Uiso   1.00
C1262  C     0.84156   0.63555   0.05429   0.00000  Uiso   1.00
C1263  C     0.90720   0.64351   0.10781   0.00000  Uiso   1.00
C1264  C     0.86160   0.63583   0.10585   0.00000  Uiso   1.00
C1265  C     0.95639   0.72445   0.22788   0.00000  Uiso   1.00
C1266  C     0.92687   0.75458   0.22225   0.00000  Uiso   1.00
C1267  C     0.79101   0.61873   0.13915   0.00000  Uiso   1.00
C1268  C     0.83469   0.62518   0.40222   0.00000  Uiso   1.00
C1269  C     0.83583   0.64443   0.30938   0.00000  Uiso   1.00
C1270  C     0.90390   0.64438   0.35665   0.00000  Uiso   1.00
C1271  C     0.85864   0.63857   0.35741   0.00000  Uiso   1.00
C1272  C     0.89482   0.74854   0.18265   0.00000  Uiso   1.00
C1273  C     0.86091   0.77186   0.17709   0.00000  Uiso   1.00
C1274  C     0.95483   0.72674   0.48180   0.00000  Uiso   1.00
C1275  C     0.92852   0.76075   0.48492   0.00000  Uiso   1.00
C1276  C     0.92368   0.78722   0.25314   0.00000  Uiso   1.00
C1277  C     0.77845   0.60591   0.34168   0.00000  Uiso   1.00
C1278  C     0.93274   0.78633   0.68349   0.00000  Uiso   1.00
C1279  C     0.80526   0.62093   0.79904   0.00000  Uiso   1.00
C1280  C     0.88969   0.74407   0.94079   0.00000  Uiso   1.00
C1281  C     0.89923   0.76274   0.52731   0.00000  Uiso   1.00
C1282  C     0.82962   0.63508   0.64915   0.00000  Uiso   1.00
C1283  C     0.83692   0.64204   0.55064   0.00000  Uiso   1.00
C1284  C     0.90092   0.64947   0.60504   0.00000  Uiso   1.00
C1285  C     0.85582   0.64299   0.60331   0.00000  Uiso   1.00
C1286  C     0.85727   0.76670   0.93730   0.00000  Uiso   1.00
C1287  C     0.78900   0.62488   0.63784   0.00000  Uiso   1.00
C1288  C     0.96193   0.72859   0.73068   0.00000  Uiso   1.00
C1289  C     0.94151   0.76817   0.73224   0.00000  Uiso   1.00
C1290  C     0.83562   0.63500   0.90192   0.00000  Uiso   1.00
C1291  C     0.83773   0.64707   0.80638   0.00000  Uiso   1.00
C1292  C     0.90389   0.64951   0.85754   0.00000  Uiso   1.00
C1293  C     0.85831   0.64788   0.85669   0.00000  Uiso   1.00
C1294  C     0.79458   0.62501   0.89340   0.00000  Uiso   1.00
C1295  C     0.95688   0.72448   0.98052   0.00000  Uiso   1.00
C1296  C     0.92373   0.75162   0.97818   0.00000  Uiso   1.00
C1297  C     0.80544   0.61467   0.54336   0.00000  Uiso   1.00
C1298  C     0.91972   0.78136   0.77846   0.00000  Uiso   1.00
C1299  C     0.86697   0.78781   0.52296   0.00000  Uiso   1.00
C1300  C     0.78536   0.60608   0.84360   0.00000  Uiso   1.00
C1301  C     0.78002   0.60650   0.58908   0.00000  Uiso   1.00
C1302  C     0.88845   0.80993   0.00472   0.00000  Uiso   1.00
C1303  C     0.81596   0.82234   0.21461   0.00000  Uiso   1.00
C1304  C     0.85743   0.98552   0.30009   0.00000  Uiso   1.00
C1305  C     0.81970   0.82675   0.46765   0.00000  Uiso   1.00
C1306  C     0.86141   0.81006   0.47591   0.00000  Uiso   1.00
C1307  C     0.88696   0.98298   0.34280   0.00000  Uiso   1.00
C1308  C     0.84320   0.93895   0.13985   0.00000  Uiso   1.00
C1309  C     0.88877   0.81108   0.24874   0.00000  Uiso   1.00
C1310  C     0.82225   0.96146   0.05016   0.00000  Uiso   1.00
C1311  C     0.89308   0.80980   0.43532   0.00000  Uiso   1.00
C1312  C     0.78287   0.90730   0.09291   0.00000  Uiso   1.00
C1313  C     0.81590   0.93730   0.09563   0.00000  Uiso   1.00
C1314  C     0.83912   0.94233   0.38956   0.00000  Uiso   1.00
C1315  C     0.81870   0.96638   0.30162   0.00000  Uiso   1.00
C1316  C     0.77826   0.91146   0.34187   0.00000  Uiso   1.00
C1317  C     0.80954   0.94309   0.34533   0.00000  Uiso   1.00
C1318  C     0.87643   0.96325   0.38848   0.00000  Uiso   1.00
C1319  C     0.87762   0.96114   0.13770   0.00000  Uiso   1.00
C1320  C     0.88478   0.98582   0.09465   0.00000  Uiso   1.00
C1321  C     0.85841   0.98584   0.04868   0.00000  Uiso   1.00
C1322  C     0.85614   0.80338   0.21235   0.00000  Uiso   1.00
C1323  C     0.92976   0.99710   0.33930   0.00000  Uiso   1.00
C1324  C     0.92831   0.99897   0.08980   0.00000  Uiso   1.00
C1325  C     0.88483   0.98586   0.84447   0.00000  Uiso   1.00
C1326  C     0.82611   0.83210   0.72050   0.00000  Uiso   1.00
C1327  C     0.81759   0.82349   0.96765   0.00000  Uiso   1.00
C1328  C     0.89915   0.81342   0.67872   0.00000  Uiso   1.00
C1329  C     0.88332   0.98858   0.59116   0.00000  Uiso   1.00
C1330  C     0.83117   0.95123   0.64172   0.00000  Uiso   1.00
C1331  C     0.81292   0.97401   0.55245   0.00000  Uiso   1.00
C1332  C     0.77336   0.91569   0.59362   0.00000  Uiso   1.00
C1333  C     0.80511   0.94782   0.59610   0.00000  Uiso   1.00
C1334  C     0.84034   0.94075   0.89025   0.00000  Uiso   1.00
C1335  C     0.87015   0.96961   0.63756   0.00000  Uiso   1.00
C1336  C     0.81686   0.96965   0.80850   0.00000  Uiso   1.00
C1337  C     0.86928   0.81713   0.72330   0.00000  Uiso   1.00
C1338  C     0.77970   0.91111   0.84371   0.00000  Uiso   1.00
C1339  C     0.81311   0.94096   0.84686   0.00000  Uiso   1.00
C1340  C     0.87724   0.96169   0.88709   0.00000  Uiso   1.00
C1341  C     0.85414   0.99143   0.80526   0.00000  Uiso   1.00
C1342  C     0.85366   0.99390   0.54744   0.00000  Uiso   1.00
C1343  C     0.85743   0.80308   0.96661   0.00000  Uiso   1.00
C1344  C     0.88367   0.80313   0.77375   0.00000  Uiso   1.00
O1345  O     0.16912   0.17945   0.26390   0.00000  Uiso   1.00
O1346  O     0.16853   0.16862   0.35701   0.00000  Uiso   1.00
O1347  O     0.05996   0.02367   0.16963   0.00000  Uiso   1.00
O1348  O     0.16712   0.17107   0.10812   0.00000  Uiso   1.00
O1349  O     0.20795   0.11727   0.48090   0.00000  Uiso   1.00
O1350  O     0.21675   0.11260   0.13883   0.00000  Uiso   1.00
O1351  O     0.16721   0.18430   0.01357   0.00000  Uiso   1.00
O1352  O     0.20525   0.11685   0.23365   0.00000  Uiso   1.00
O1353  O     0.06075   0.02008   0.41765   0.00000  Uiso   1.00
O1354  O     0.21919   0.11346   0.38851   0.00000  Uiso   1.00
O1355  O     0.05951   0.01799   0.01366   0.00000  Uiso   1.00
O1356  O     0.06155   0.01789   0.26406   0.00000  Uiso   1.00
O1357  O     0.05670   0.02114   0.67014   0.00000  Uiso   1.00
O1358  O     0.16744   0.18010   0.51048   0.00000  Uiso   1.00
O1359  O     0.05749   0.01961   0.91768   0.00000  Uiso   1.00
O1360  O     0.16998   0.16840   0.85421   0.00000  Uiso   1.00
O1361  O     0.05801   0.01620   0.76342   0.00000  Uiso   1.00
O1362  O     0.16922   0.18016   0.76172   0.00000  Uiso   1.00
O1363  O     0.21530   0.11241   0.63485   0.00000  Uiso   1.00
O1364  O     0.20569   0.11941   0.98143   0.00000  Uiso   1.00
O1365  O     0.20941   0.11716   0.73101   0.00000  Uiso   1.00
O1366  O     0.22141   0.11558   0.88922   0.00000  Uiso   1.00
O1367  O     0.16728   0.16811   0.60637   0.00000  Uiso   1.00
O1368  O     0.06100   0.01839   0.51387   0.00000  Uiso   1.00
O1369  O     0.23326   0.21724   0.10909   0.00000  Uiso   1.00
O1370  O     0.00526   0.30411   0.36887   0.00000  Uiso   1.00
O1371  O     0.04119   0.36915   0.15108   0.00000  Uiso   1.00
O1372  O     0.04230   0.37019   0.39700   0.00000  Uiso   1.00
O1373  O     0.03822   0.36651   0.24566   0.00000  Uiso   1.00
O1374  O     0.23243   0.21787   0.35343   0.00000  Uiso   1.00
O1375  O     0.04041   0.36882   0.49223   0.00000  Uiso   1.00
O1376  O     0.24473   0.21815   0.01354   0.00000  Uiso   1.00
O1377  O     0.00818   0.30342   0.27404   0.00000  Uiso   1.00
O1378  O     0.24418   0.21696   0.25999   0.00000  Uiso   1.00
O1379  O     0.00435   0.30122   0.02485   0.00000  Uiso   1.00
O1380  O     0.00744   0.30458   0.12150   0.00000  Uiso   1.00
O1381  O     0.22967   0.21806   0.60110   0.00000  Uiso   1.00
O1382  O     0.24052   0.21778   0.50750   0.00000  Uiso   1.00
O1383  O     0.04085   0.36084   0.99588   0.00000  Uiso   1.00
O1384  O     0.04064   0.36903   0.90104   0.00000  Uiso   1.00
O1385  O     0.00251   0.29792   0.77301   0.00000  Uiso   1.00
O1386  O     0.03880   0.36250   0.74417   0.00000  Uiso   1.00
O1387  O     0.04232   0.36574   0.64932   0.00000  Uiso   1.00
O1388  O     0.00741   0.30342   0.52496   0.00000  Uiso   1.00
O1389  O     0.22859   0.22099   0.85081   0.00000  Uiso   1.00
O1390  O     0.00606   0.30250   0.86992   0.00000  Uiso   1.00
O1391  O     0.24423   0.21849   0.75861   0.00000  Uiso   1.00
O1392  O     0.00541   0.30254   0.62186   0.00000  Uiso   1.00
O1393  O     0.21981   0.47217   0.43262   0.00000  Uiso   1.00
O1394  O     0.19595   0.53487   0.15233   0.00000  Uiso   1.00
O1395  O     0.21969   0.47347   0.27845   0.00000  Uiso   1.00
O1396  O     0.22145   0.46999   0.18258   0.00000  Uiso   1.00
O1397  O     0.19545   0.53905   0.39997   0.00000  Uiso   1.00
O1398  O     0.20140   0.54487   0.30483   0.00000  Uiso   1.00
O1399  O     0.21925   0.47413   0.02722   0.00000  Uiso   1.00
O1400  O     0.19823   0.54181   0.05632   0.00000  Uiso   1.00
O1401  O     0.22384   0.47211   0.92954   0.00000  Uiso   1.00
O1402  O     0.19583   0.54335   0.80726   0.00000  Uiso   1.00
O1403  O     0.22139   0.46963   0.68191   0.00000  Uiso   1.00
O1404  O     0.21392   0.47574   0.77744   0.00000  Uiso   1.00
O1405  O     0.19896   0.54212   0.55618   0.00000  Uiso   1.00
O1406  O     0.19531   0.53922   0.90072   0.00000  Uiso   1.00
O1407  O     0.19467   0.53682   0.65045   0.00000  Uiso   1.00
O1408  O     0.21919   0.47493   0.52604   0.00000  Uiso   1.00
O1409  O     0.03399   0.67724   0.43986   0.00000  Uiso   1.00
O1410  O     0.03598   0.66891   0.27856   0.00000  Uiso   1.00
O1411  O     0.03670   0.67148   0.18479   0.00000  Uiso   1.00
O1412  O     0.21360   0.78231   0.03352   0.00000  Uiso   1.00
O1413  O     0.03477   0.67087   0.02666   0.00000  Uiso   1.00
O1414  O     0.21606   0.78291   0.28530   0.00000  Uiso   1.00
O1415  O     0.20553   0.78518   0.44070   0.00000  Uiso   1.00
O1416  O     0.20791   0.78417   0.19176   0.00000  Uiso   1.00
O1417  O     0.00193   0.61131   0.40565   0.00000  Uiso   1.00
O1418  O     0.00155   0.60646   0.15441   0.00000  Uiso   1.00
O1419  O     0.03644   0.66890   0.93333   0.00000  Uiso   1.00
O1420  O     0.03476   0.66297   0.77816   0.00000  Uiso   1.00
O1421  O     0.03369   0.66860   0.68498   0.00000  Uiso   1.00
O1422  O     0.21065   0.78235   0.78506   0.00000  Uiso   1.00
O1423  O     0.03544   0.66377   0.53282   0.00000  Uiso   1.00
O1424  O     0.20523   0.78230   0.68972   0.00000  Uiso   1.00
O1425  O     0.20415   0.78557   0.93895   0.00000  Uiso   1.00
O1426  O     0.20952   0.78291   0.53594   0.00000  Uiso   1.00
O1427  O     0.01136   0.96192   0.04454   0.00000  Uiso   1.00
O1428  O     0.17815   0.84548   0.31222   0.00000  Uiso   1.00
O1429  O     0.17848   0.84475   0.06408   0.00000  Uiso   1.00
O1430  O     0.17669   0.84938   0.40676   0.00000  Uiso   1.00
O1431  O     0.01800   0.96015   0.38823   0.00000  Uiso   1.00
O1432  O     0.17722   0.85039   0.15906   0.00000  Uiso   1.00
O1433  O     0.01561   0.95960   0.29265   0.00000  Uiso   1.00
O1434  O     0.01938   0.96345   0.13926   0.00000  Uiso   1.00
O1435  O     0.24678   0.88178   0.06830   0.00000  Uiso   1.00
O1436  O     0.01680   0.96276   0.88632   0.00000  Uiso   1.00
O1437  O     0.01081   0.95908   0.79217   0.00000  Uiso   1.00
O1438  O     0.18032   0.84962   0.56664   0.00000  Uiso   1.00
O1439  O     0.17580   0.85163   0.90801   0.00000  Uiso   1.00
O1440  O     0.17770   0.84814   0.81236   0.00000  Uiso   1.00
O1441  O     0.17639   0.85031   0.65965   0.00000  Uiso   1.00
O1442  O     0.01725   0.96281   0.63868   0.00000  Uiso   1.00
O1443  O     0.01586   0.96238   0.54264   0.00000  Uiso   1.00
O1444  O     0.46961   0.06329   0.16446   0.00000  Uiso   1.00
O1445  O     0.46515   0.05829   0.41588   0.00000  Uiso   1.00
O1446  O     0.27953   0.15472   0.22956   0.00000  Uiso   1.00
O1447  O     0.27926   0.15566   0.47715   0.00000  Uiso   1.00
O1448  O     0.45959   0.05979   0.25789   0.00000  Uiso   1.00
O1449  O     0.28234   0.16293   0.38499   0.00000  Uiso   1.00
O1450  O     0.28144   0.16030   0.13516   0.00000  Uiso   1.00
O1451  O     0.46025   0.06363   0.00761   0.00000  Uiso   1.00
O1452  O     0.45845   0.05407   0.50941   0.00000  Uiso   1.00
O1453  O     0.28149   0.16229   0.63458   0.00000  Uiso   1.00
O1454  O     0.28381   0.16856   0.88056   0.00000  Uiso   1.00
O1455  O     0.28019   0.15660   0.97548   0.00000  Uiso   1.00
O1456  O     0.28159   0.15535   0.72846   0.00000  Uiso   1.00
O1457  O     0.46832   0.06118   0.91374   0.00000  Uiso   1.00
O1458  O     0.46345   0.05657   0.75745   0.00000  Uiso   1.00
O1459  O     0.46453   0.05399   0.66371   0.00000  Uiso   1.00
O1460  O     0.46137   0.36614   0.40951   0.00000  Uiso   1.00
O1461  O     0.42915   0.30635   0.28066   0.00000  Uiso   1.00
O1462  O     0.43061   0.30013   0.37769   0.00000  Uiso   1.00
O1463  O     0.46727   0.36851   0.25223   0.00000  Uiso   1.00
O1464  O     0.42705   0.30423   0.03044   0.00000  Uiso   1.00
O1465  O     0.45973   0.36583   0.15727   0.00000  Uiso   1.00
O1466  O     0.42991   0.30090   0.12437   0.00000  Uiso   1.00
O1467  O     0.46520   0.36854   0.00270   0.00000  Uiso   1.00
O1468  O     0.49952   0.26758   0.28244   0.00000  Uiso   1.00
O1469  O     0.45942   0.36463   0.75365   0.00000  Uiso   1.00
O1470  O     0.42951   0.30065   0.87807   0.00000  Uiso   1.00
O1471  O     0.42835   0.29729   0.78215   0.00000  Uiso   1.00
O1472  O     0.45876   0.36759   0.90767   0.00000  Uiso   1.00
O1473  O     0.42610   0.30134   0.62573   0.00000  Uiso   1.00
O1474  O     0.45956   0.36560   0.65917   0.00000  Uiso   1.00
O1475  O     0.43174   0.29247   0.53172   0.00000  Uiso   1.00
O1476  O     0.45317   0.36162   0.50343   0.00000  Uiso   1.00
O1477  O     0.29942   0.49178   0.27505   0.00000  Uiso   1.00
O1478  O     0.27591   0.56427   0.39890   0.00000  Uiso   1.00
O1479  O     0.27632   0.56146   0.15300   0.00000  Uiso   1.00
O1480  O     0.29936   0.49972   0.42948   0.00000  Uiso   1.00
O1481  O     0.30129   0.49241   0.17938   0.00000  Uiso   1.00
O1482  O     0.30063   0.49409   0.02557   0.00000  Uiso   1.00
O1483  O     0.27803   0.56253   0.05896   0.00000  Uiso   1.00
O1484  O     0.28171   0.56200   0.30252   0.00000  Uiso   1.00
O1485  O     0.27197   0.56608   0.65087   0.00000  Uiso   1.00
O1486  O     0.29793   0.49231   0.77447   0.00000  Uiso   1.00
O1487  O     0.27837   0.56300   0.80396   0.00000  Uiso   1.00
O1488  O     0.28108   0.56367   0.55612   0.00000  Uiso   1.00
O1489  O     0.29907   0.49902   0.68053   0.00000  Uiso   1.00
O1490  O     0.30121   0.50112   0.92761   0.00000  Uiso   1.00
O1491  O     0.29933   0.49569   0.52222   0.00000  Uiso   1.00
O1492  O     0.27234   0.56811   0.90137   0.00000  Uiso   1.00
O1493  O     0.48191   0.74574   0.03021   0.00000  Uiso   1.00
O1494  O     0.48675   0.74555   0.27960   0.00000  Uiso   1.00
O1495  O     0.48821   0.74731   0.43244   0.00000  Uiso   1.00
O1496  O     0.49099   0.74589   0.18519   0.00000  Uiso   1.00
O1497  O     0.44734   0.68477   0.40182   0.00000  Uiso   1.00
O1498  O     0.44762   0.68868   0.15298   0.00000  Uiso   1.00
O1499  O     0.44501   0.68665   0.30606   0.00000  Uiso   1.00
O1500  O     0.44747   0.67992   0.05688   0.00000  Uiso   1.00
O1501  O     0.44880   0.67855   0.65621   0.00000  Uiso   1.00
O1502  O     0.48034   0.74476   0.77856   0.00000  Uiso   1.00
O1503  O     0.48671   0.74707   0.93464   0.00000  Uiso   1.00
O1504  O     0.44582   0.68455   0.56056   0.00000  Uiso   1.00
O1505  O     0.45003   0.67653   0.81251   0.00000  Uiso   1.00
O1506  O     0.48263   0.74383   0.68487   0.00000  Uiso   1.00
O1507  O     0.48491   0.74744   0.52796   0.00000  Uiso   1.00
O1508  O     0.44659   0.68510   0.90627   0.00000  Uiso   1.00
O1509  O     0.28888   0.81942   0.28721   0.00000  Uiso   1.00
O1510  O     0.28425   0.81491   0.43795   0.00000  Uiso   1.00
O1511  O     0.28757   0.82054   0.03640   0.00000  Uiso   1.00
O1512  O     0.28527   0.81187   0.19197   0.00000  Uiso   1.00
O1513  O     0.43131   0.99560   0.04035   0.00000  Uiso   1.00
O1514  O     0.43081   0.99439   0.29051   0.00000  Uiso   1.00
O1515  O     0.25173   0.88200   0.31463   0.00000  Uiso   1.00
O1516  O     0.43483   0.99050   0.38538   0.00000  Uiso   1.00
O1517  O     0.25627   0.88096   0.41079   0.00000  Uiso   1.00
O1518  O     0.26271   0.87569   0.16045   0.00000  Uiso   1.00
O1519  O     0.42925   0.99988   0.13606   0.00000  Uiso   1.00
O1520  O     0.43461   0.99016   0.63350   0.00000  Uiso   1.00
O1521  O     0.43061   0.99780   0.88623   0.00000  Uiso   1.00
O1522  O     0.42925   0.99522   0.79014   0.00000  Uiso   1.00
O1523  O     0.28386   0.81468   0.69227   0.00000  Uiso   1.00
O1524  O     0.28521   0.81522   0.78714   0.00000  Uiso   1.00
O1525  O     0.43660   0.98583   0.53838   0.00000  Uiso   1.00
O1526  O     0.25519   0.88022   0.81263   0.00000  Uiso   1.00
O1527  O     0.28291   0.81329   0.94081   0.00000  Uiso   1.00
O1528  O     0.28630   0.81316   0.53264   0.00000  Uiso   1.00
O1529  O     0.25768   0.87939   0.56500   0.00000  Uiso   1.00
O1530  O     0.25485   0.87929   0.66105   0.00000  Uiso   1.00
O1531  O     0.25439   0.88143   0.90769   0.00000  Uiso   1.00
O1532  O     0.69453   0.18195   0.11930   0.00000  Uiso   1.00
O1533  O     0.73303   0.11322   0.49519   0.00000  Uiso   1.00
O1534  O     0.53977   0.03256   0.00650   0.00000  Uiso   1.00
O1535  O     0.69472   0.18332   0.27904   0.00000  Uiso   1.00
O1536  O     0.73365   0.11500   0.39996   0.00000  Uiso   1.00
O1537  O     0.69518   0.17946   0.37443   0.00000  Uiso   1.00
O1538  O     0.54089   0.02133   0.16230   0.00000  Uiso   1.00
O1539  O     0.69227   0.17443   0.02583   0.00000  Uiso   1.00
O1540  O     0.72566   0.12057   0.15168   0.00000  Uiso   1.00
O1541  O     0.54009   0.02758   0.40996   0.00000  Uiso   1.00
O1542  O     0.72897   0.12070   0.24811   0.00000  Uiso   1.00
O1543  O     0.53794   0.03052   0.25651   0.00000  Uiso   1.00
O1544  O     0.69186   0.17098   0.52444   0.00000  Uiso   1.00
O1545  O     0.69123   0.17414   0.87363   0.00000  Uiso   1.00
O1546  O     0.69259   0.17229   0.62050   0.00000  Uiso   1.00
O1547  O     0.68851   0.17132   0.77787   0.00000  Uiso   1.00
O1548  O     0.54202   0.02315   0.75375   0.00000  Uiso   1.00
O1549  O     0.54138   0.02317   0.65995   0.00000  Uiso   1.00
O1550  O     0.73329   0.11339   0.65262   0.00000  Uiso   1.00
O1551  O     0.73263   0.11218   0.74859   0.00000  Uiso   1.00
O1552  O     0.73528   0.11553   0.90346   0.00000  Uiso   1.00
O1553  O     0.54053   0.02728   0.91292   0.00000  Uiso   1.00
O1554  O     0.54081   0.03125   0.50633   0.00000  Uiso   1.00
O1555  O     0.72933   0.11671   0.99703   0.00000  Uiso   1.00
O1556  O     0.51054   0.27056   0.12704   0.00000  Uiso   1.00
O1557  O     0.51089   0.26959   0.37669   0.00000  Uiso   1.00
O1558  O     0.53956   0.33546   0.41106   0.00000  Uiso   1.00
O1559  O     0.54101   0.32843   0.25492   0.00000  Uiso   1.00
O1560  O     0.50079   0.26584   0.03324   0.00000  Uiso   1.00
O1561  O     0.53736   0.32981   0.00231   0.00000  Uiso   1.00
O1562  O     0.53770   0.33838   0.15901   0.00000  Uiso   1.00
O1563  O     0.50502   0.26916   0.87616   0.00000  Uiso   1.00
O1564  O     0.50191   0.26774   0.62673   0.00000  Uiso   1.00
O1565  O     0.53771   0.33715   0.90606   0.00000  Uiso   1.00
O1566  O     0.50598   0.26843   0.78092   0.00000  Uiso   1.00
O1567  O     0.53586   0.33731   0.75250   0.00000  Uiso   1.00
O1568  O     0.51310   0.27118   0.53443   0.00000  Uiso   1.00
O1569  O     0.53551   0.33472   0.65650   0.00000  Uiso   1.00
O1570  O     0.53506   0.33969   0.50467   0.00000  Uiso   1.00
O1571  O     0.70730   0.45089   0.00839   0.00000  Uiso   1.00
O1572  O     0.67432   0.51540   0.04155   0.00000  Uiso   1.00
O1573  O     0.71482   0.44986   0.26210   0.00000  Uiso   1.00
O1574  O     0.67523   0.51480   0.13743   0.00000  Uiso   1.00
O1575  O     0.67640   0.51435   0.39004   0.00000  Uiso   1.00
O1576  O     0.71294   0.45258   0.42211   0.00000  Uiso   1.00
O1577  O     0.67568   0.51515   0.29381   0.00000  Uiso   1.00
O1578  O     0.70479   0.44954   0.16730   0.00000  Uiso   1.00
O1579  O     0.68029   0.51750   0.54468   0.00000  Uiso   1.00
O1580  O     0.70932   0.44953   0.91648   0.00000  Uiso   1.00
O1581  O     0.68059   0.51787   0.64047   0.00000  Uiso   1.00
O1582  O     0.68100   0.51477   0.89009   0.00000  Uiso   1.00
O1583  O     0.67993   0.51944   0.79441   0.00000  Uiso   1.00
O1584  O     0.70908   0.45390   0.76495   0.00000  Uiso   1.00
O1585  O     0.71340   0.45265   0.51748   0.00000  Uiso   1.00
O1586  O     0.71320   0.45070   0.67190   0.00000  Uiso   1.00
O1587  O     0.56055   0.70728   0.43478   0.00000  Uiso   1.00
O1588  O     0.55831   0.70438   0.27616   0.00000  Uiso   1.00
O1589  O     0.56021   0.69973   0.18160   0.00000  Uiso   1.00
O1590  O     0.52355   0.64725   0.40476   0.00000  Uiso   1.00
O1591  O     0.55828   0.71076   0.02628   0.00000  Uiso   1.00
O1592  O     0.51715   0.64582   0.30763   0.00000  Uiso   1.00
O1593  O     0.52298   0.64575   0.05667   0.00000  Uiso   1.00
O1594  O     0.51604   0.64484   0.15135   0.00000  Uiso   1.00
O1595  O     0.73115   0.79710   0.26241   0.00000  Uiso   1.00
O1596  O     0.72817   0.79656   0.42159   0.00000  Uiso   1.00
O1597  O     0.55644   0.70829   0.93210   0.00000  Uiso   1.00
O1598  O     0.55837   0.71298   0.78071   0.00000  Uiso   1.00
O1599  O     0.55881   0.70847   0.68428   0.00000  Uiso   1.00
O1600  O     0.51983   0.64661   0.90407   0.00000  Uiso   1.00
O1601  O     0.52516   0.64822   0.80933   0.00000  Uiso   1.00
O1602  O     0.51666   0.64540   0.56011   0.00000  Uiso   1.00
O1603  O     0.52511   0.64549   0.65396   0.00000  Uiso   1.00
O1604  O     0.55996   0.70468   0.52977   0.00000  Uiso   1.00
O1605  O     0.72512   0.79930   0.91944   0.00000  Uiso   1.00
O1606  O     0.73679   0.79511   0.67191   0.00000  Uiso   1.00
O1607  O     0.73126   0.79820   0.51555   0.00000  Uiso   1.00
O1608  O     0.72783   0.79840   0.76610   0.00000  Uiso   1.00
O1609  O     0.69438   0.86279   0.29491   0.00000  Uiso   1.00
O1610  O     0.69063   0.86840   0.13762   0.00000  Uiso   1.00
O1611  O     0.69332   0.85855   0.39069   0.00000  Uiso   1.00
O1612  O     0.50833   0.96542   0.03883   0.00000  Uiso   1.00
O1613  O     0.51020   0.96273   0.28458   0.00000  Uiso   1.00
O1614  O     0.69029   0.86638   0.04487   0.00000  Uiso   1.00
O1615  O     0.51175   0.96195   0.37946   0.00000  Uiso   1.00
O1616  O     0.50115   0.96168   0.13071   0.00000  Uiso   1.00
O1617  O     0.71884   0.80045   0.16768   0.00000  Uiso   1.00
O1618  O     0.72187   0.80054   0.01417   0.00000  Uiso   1.00
O1619  O     0.50562   0.96058   0.79095   0.00000  Uiso   1.00
O1620  O     0.69210   0.86337   0.88760   0.00000  Uiso   1.00
O1621  O     0.51194   0.95823   0.63126   0.00000  Uiso   1.00
O1622  O     0.69426   0.86191   0.79284   0.00000  Uiso   1.00
O1623  O     0.69197   0.85603   0.63939   0.00000  Uiso   1.00
O1624  O     0.51947   0.96419   0.53797   0.00000  Uiso   1.00
O1625  O     0.69279   0.85935   0.54467   0.00000  Uiso   1.00
O1626  O     0.50698   0.96096   0.88680   0.00000  Uiso   1.00
O1627  O     0.80624   0.15458   0.40368   0.00000  Uiso   1.00
O1628  O     0.80427   0.15735   0.49674   0.00000  Uiso   1.00
O1629  O     0.80304   0.15924   0.24667   0.00000  Uiso   1.00
O1630  O     0.99363   0.06635   0.01196   0.00000  Uiso   1.00
O1631  O     0.98237   0.06248   0.16783   0.00000  Uiso   1.00
O1632  O     0.80386   0.15394   0.15304   0.00000  Uiso   1.00
O1633  O     0.94914   0.00283   0.29285   0.00000  Uiso   1.00
O1634  O     0.99064   0.06510   0.41196   0.00000  Uiso   1.00
O1635  O     0.99508   0.06474   0.26413   0.00000  Uiso   1.00
O1636  O     0.94864   0.00421   0.38610   0.00000  Uiso   1.00
O1637  O     0.94561   0.00671   0.04148   0.00000  Uiso   1.00
O1638  O     0.94985   0.00126   0.13646   0.00000  Uiso   1.00
O1639  O     0.94519   0.00613   0.79209   0.00000  Uiso   1.00
O1640  O     0.80492   0.16068   0.90344   0.00000  Uiso   1.00
O1641  O     0.80215   0.15727   0.74793   0.00000  Uiso   1.00
O1642  O     0.98613   0.06517   0.66543   0.00000  Uiso   1.00
O1643  O     0.80461   0.15605   0.65551   0.00000  Uiso   1.00
O1644  O     0.99352   0.06535   0.76119   0.00000  Uiso   1.00
O1645  O     0.80219   0.15517   0.99969   0.00000  Uiso   1.00
O1646  O     0.98780   0.06760   0.91675   0.00000  Uiso   1.00
O1647  O     0.99160   0.06473   0.50673   0.00000  Uiso   1.00
O1648  O     0.94678   0.00735   0.63455   0.00000  Uiso   1.00
O1649  O     0.94627   0.00499   0.54019   0.00000  Uiso   1.00
O1650  O     0.94623   0.00517   0.88744   0.00000  Uiso   1.00
O1651  O     0.76686   0.21928   0.37619   0.00000  Uiso   1.00
O1652  O     0.76570   0.21861   0.02984   0.00000  Uiso   1.00
O1653  O     0.76964   0.21594   0.12463   0.00000  Uiso   1.00
O1654  O     0.93194   0.33854   0.02210   0.00000  Uiso   1.00
O1655  O     0.92873   0.33490   0.27696   0.00000  Uiso   1.00
O1656  O     0.93132   0.33613   0.37262   0.00000  Uiso   1.00
O1657  O     0.93298   0.33872   0.11811   0.00000  Uiso   1.00
O1658  O     0.76548   0.22142   0.27813   0.00000  Uiso   1.00
O1659  O     0.76040   0.21466   0.62343   0.00000  Uiso   1.00
O1660  O     0.75727   0.21702   0.77558   0.00000  Uiso   1.00
O1661  O     0.92980   0.33351   0.86756   0.00000  Uiso   1.00
O1662  O     0.92866   0.33709   0.77259   0.00000  Uiso   1.00
O1663  O     0.92902   0.33739   0.52477   0.00000  Uiso   1.00
O1664  O     0.92761   0.33978   0.62019   0.00000  Uiso   1.00
O1665  O     0.76357   0.21325   0.52953   0.00000  Uiso   1.00
O1666  O     0.76140   0.21824   0.87068   0.00000  Uiso   1.00
O1667  O     0.78676   0.48742   0.26166   0.00000  Uiso   1.00
O1668  O     0.78766   0.48607   0.41766   0.00000  Uiso   1.00
O1669  O     0.75380   0.54645   0.13828   0.00000  Uiso   1.00
O1670  O     0.78651   0.48180   0.01265   0.00000  Uiso   1.00
O1671  O     0.78277   0.48261   0.16904   0.00000  Uiso   1.00
O1672  O     0.75079   0.54893   0.29083   0.00000  Uiso   1.00
O1673  O     0.96699   0.40376   0.49370   0.00000  Uiso   1.00
O1674  O     0.96695   0.40205   0.39942   0.00000  Uiso   1.00
O1675  O     0.96611   0.40232   0.14948   0.00000  Uiso   1.00
O1676  O     0.75384   0.54983   0.38679   0.00000  Uiso   1.00
O1677  O     0.75357   0.54818   0.04504   0.00000  Uiso   1.00
O1678  O     0.96168   0.40021   0.24527   0.00000  Uiso   1.00
O1679  O     0.78892   0.48705   0.76328   0.00000  Uiso   1.00
O1680  O     0.96666   0.40054   0.74442   0.00000  Uiso   1.00
O1681  O     0.79021   0.48798   0.66823   0.00000  Uiso   1.00
O1682  O     0.78620   0.48285   0.91836   0.00000  Uiso   1.00
O1683  O     0.79079   0.48790   0.51428   0.00000  Uiso   1.00
O1684  O     0.75617   0.55002   0.54482   0.00000  Uiso   1.00
O1685  O     0.75501   0.54876   0.88889   0.00000  Uiso   1.00
O1686  O     0.96757   0.40199   0.64778   0.00000  Uiso   1.00
O1687  O     0.96798   0.40159   0.99192   0.00000  Uiso   1.00
O1688  O     0.75585   0.55159   0.63732   0.00000  Uiso   1.00
O1689  O     0.75634   0.55298   0.79380   0.00000  Uiso   1.00
O1690  O     0.96577   0.40015   0.89823   0.00000  Uiso   1.00
O1691  O     0.96381   0.71052   0.27649   0.00000  Uiso   1.00
O1692  O     0.95440   0.70719   0.43477   0.00000  Uiso   1.00
O1693  O     0.92215   0.64697   0.30906   0.00000  Uiso   1.00
O1694  O     0.96384   0.70530   0.18152   0.00000  Uiso   1.00
O1695  O     0.92284   0.64381   0.40338   0.00000  Uiso   1.00
O1696  O     0.96603   0.70957   0.02889   0.00000  Uiso   1.00
O1697  O     0.92616   0.64256   0.15521   0.00000  Uiso   1.00
O1698  O     0.92519   0.64698   0.06011   0.00000  Uiso   1.00
O1699  O     0.99605   0.60649   0.05787   0.00000  Uiso   1.00
O1700  O     0.99417   0.60898   0.31241   0.00000  Uiso   1.00
O1701  O     0.97143   0.71157   0.77781   0.00000  Uiso   1.00
O1702  O     0.98803   0.60650   0.80595   0.00000  Uiso   1.00
O1703  O     0.96512   0.70857   0.93245   0.00000  Uiso   1.00
O1704  O     0.92335   0.64872   0.90659   0.00000  Uiso   1.00
O1705  O     0.92195   0.65617   0.80933   0.00000  Uiso   1.00
O1706  O     0.98868   0.60858   0.56035   0.00000  Uiso   1.00
O1707  O     0.96620   0.71101   0.52811   0.00000  Uiso   1.00
O1708  O     0.99809   0.60829   0.90144   0.00000  Uiso   1.00
O1709  O     0.92097   0.64996   0.65434   0.00000  Uiso   1.00
O1710  O     0.92016   0.65490   0.55693   0.00000  Uiso   1.00
O1711  O     0.96177   0.70942   0.68339   0.00000  Uiso   1.00
O1712  O     0.99200   0.60802   0.65424   0.00000  Uiso   1.00
O1713  O     0.80076   0.83159   0.26332   0.00000  Uiso   1.00
O1714  O     0.80082   0.83147   0.01696   0.00000  Uiso   1.00
O1715  O     0.79617   0.82659   0.16842   0.00000  Uiso   1.00
O1716  O     0.76930   0.89405   0.04437   0.00000  Uiso   1.00
O1717  O     0.76919   0.89235   0.13872   0.00000  Uiso   1.00
O1718  O     0.76784   0.89522   0.38743   0.00000  Uiso   1.00
O1719  O     0.76874   0.89719   0.29175   0.00000  Uiso   1.00
O1720  O     0.80324   0.83233   0.41860   0.00000  Uiso   1.00
O1721  O     0.80607   0.83275   0.76690   0.00000  Uiso   1.00
O1722  O     0.76930   0.89831   0.79499   0.00000  Uiso   1.00
O1723  O     0.80236   0.83667   0.51346   0.00000  Uiso   1.00
O1724  O     0.76490   0.89846   0.64009   0.00000  Uiso   1.00
O1725  O     0.80868   0.83662   0.67176   0.00000  Uiso   1.00
O1726  O     0.76628   0.89881   0.54613   0.00000  Uiso   1.00
O1727  O     0.76816   0.89460   0.88955   0.00000  Uiso   1.00
O1728  O     0.80126   0.83251   0.91915   0.00000  Uiso   1.00
O1729  O     0.01537   0.02694   0.33901   0.00000  Uiso   1.00
O1730  O     0.23842   0.14981   0.30753   0.00000  Uiso   1.00
O1731  O     0.21187   0.18272   0.43229   0.00000  Uiso   1.00
O1732  O     0.23320   0.15018   0.05789   0.00000  Uiso   1.00
O1733  O     0.20979   0.18052   0.18554   0.00000  Uiso   1.00
O1734  O     0.01222   0.02730   0.09088   0.00000  Uiso   1.00
O1735  O     0.23631   0.15432   0.55623   0.00000  Uiso   1.00
O1736  O     0.23651   0.15283   0.80820   0.00000  Uiso   1.00
O1737  O     0.01226   0.02812   0.83875   0.00000  Uiso   1.00
O1738  O     0.21178   0.18040   0.68263   0.00000  Uiso   1.00
O1739  O     0.21508   0.18468   0.93188   0.00000  Uiso   1.00
O1740  O     0.01296   0.02789   0.59046   0.00000  Uiso   1.00
O1741  O     0.24154   0.53841   0.47850   0.00000  Uiso   1.00
O1742  O     0.24373   0.53374   0.22822   0.00000  Uiso   1.00
O1743  O     0.23780   0.53677   0.72842   0.00000  Uiso   1.00
O1744  O     0.24382   0.53676   0.98120   0.00000  Uiso   1.00
O1745  O     0.22231   0.84850   0.48666   0.00000  Uiso   1.00
O1746  O     0.24035   0.81455   0.36303   0.00000  Uiso   1.00
O1747  O     0.24248   0.81488   0.11115   0.00000  Uiso   1.00
O1748  O     0.22496   0.84974   0.23591   0.00000  Uiso   1.00
O1749  O     0.24046   0.81669   0.86131   0.00000  Uiso   1.00
O1750  O     0.22212   0.84922   0.98640   0.00000  Uiso   1.00
O1751  O     0.22308   0.84791   0.73706   0.00000  Uiso   1.00
O1752  O     0.24110   0.81485   0.61501   0.00000  Uiso   1.00
O1753  O     0.49182   0.02852   0.33663   0.00000  Uiso   1.00
O1754  O     0.49419   0.02958   0.08468   0.00000  Uiso   1.00
O1755  O     0.49456   0.02485   0.83456   0.00000  Uiso   1.00
O1756  O     0.49454   0.02561   0.58535   0.00000  Uiso   1.00
O1757  O     0.47911   0.29809   0.45650   0.00000  Uiso   1.00
O1758  O     0.49203   0.33542   0.33218   0.00000  Uiso   1.00
O1759  O     0.47732   0.30035   0.20401   0.00000  Uiso   1.00
O1760  O     0.49321   0.33515   0.08022   0.00000  Uiso   1.00
O1761  O     0.48696   0.33643   0.58126   0.00000  Uiso   1.00
O1762  O     0.47334   0.30228   0.95371   0.00000  Uiso   1.00
O1763  O     0.47305   0.30021   0.70550   0.00000  Uiso   1.00
O1764  O     0.49288   0.33325   0.82958   0.00000  Uiso   1.00
O1765  O     0.25413   0.50032   0.35675   0.00000  Uiso   1.00
O1766  O     0.25443   0.49865   0.10389   0.00000  Uiso   1.00
O1767  O     0.25518   0.50248   0.60239   0.00000  Uiso   1.00
O1768  O     0.25350   0.50196   0.85136   0.00000  Uiso   1.00
O1769  O     0.49170   0.67990   0.22922   0.00000  Uiso   1.00
O1770  O     0.49260   0.67988   0.48229   0.00000  Uiso   1.00
O1771  O     0.49345   0.67956   0.98124   0.00000  Uiso   1.00
O1772  O     0.49509   0.67840   0.73276   0.00000  Uiso   1.00
O1773  O     0.48179   0.99233   0.46235   0.00000  Uiso   1.00
O1774  O     0.47712   0.99542   0.21200   0.00000  Uiso   1.00
O1775  O     0.47615   0.99557   0.96342   0.00000  Uiso   1.00
O1776  O     0.47992   0.98908   0.71058   0.00000  Uiso   1.00
O1777  O     0.73968   0.18603   0.20047   0.00000  Uiso   1.00
O1778  O     0.73917   0.17994   0.45027   0.00000  Uiso   1.00
O1779  O     0.73619   0.18259   0.94992   0.00000  Uiso   1.00
O1780  O     0.73435   0.17944   0.69876   0.00000  Uiso   1.00
O1781  O     0.73837   0.48119   0.09066   0.00000  Uiso   1.00
O1782  O     0.74015   0.48178   0.34147   0.00000  Uiso   1.00
O1783  O     0.72637   0.51774   0.46653   0.00000  Uiso   1.00
O1784  O     0.71902   0.51411   0.21380   0.00000  Uiso   1.00
O1785  O     0.72416   0.51702   0.96447   0.00000  Uiso   1.00
O1786  O     0.74301   0.48457   0.59158   0.00000  Uiso   1.00
O1787  O     0.72668   0.51917   0.71780   0.00000  Uiso   1.00
O1788  O     0.74250   0.48469   0.84020   0.00000  Uiso   1.00
O1789  O     0.51320   0.71091   0.35586   0.00000  Uiso   1.00
O1790  O     0.51440   0.71045   0.10624   0.00000  Uiso   1.00
O1791  O     0.51116   0.71346   0.85724   0.00000  Uiso   1.00
O1792  O     0.51325   0.71204   0.60774   0.00000  Uiso   1.00
O1793  O     0.73636   0.86325   0.21564   0.00000  Uiso   1.00
O1794  O     0.73944   0.86498   0.46594   0.00000  Uiso   1.00
O1795  O     0.74095   0.86222   0.71983   0.00000  Uiso   1.00
O1796  O     0.73618   0.86332   0.96720   0.00000  Uiso   1.00
O1797  O     0.75580   0.15073   0.07509   0.00000  Uiso   1.00
O1798  O     0.76139   0.15275   0.32576   0.00000  Uiso   1.00
O1799  O     0.75850   0.14680   0.57460   0.00000  Uiso   1.00
O1800  O     0.75665   0.14959   0.82516   0.00000  Uiso   1.00
O1801  O     0.97768   0.33899   0.44894   0.00000  Uiso   1.00
O1802  O     0.97729   0.33583   0.19711   0.00000  Uiso   1.00
O1803  O     0.99186   0.36833   0.32248   0.00000  Uiso   1.00
O1804  O     0.99502   0.36847   0.07270   0.00000  Uiso   1.00
O1805  O     0.99503   0.36826   0.57174   0.00000  Uiso   1.00
O1806  O     0.97790   0.33482   0.94640   0.00000  Uiso   1.00
O1807  O     0.97565   0.33770   0.69699   0.00000  Uiso   1.00
O1808  O     0.99342   0.36585   0.82119   0.00000  Uiso   1.00
O1809  O     0.98915   0.67540   0.35823   0.00000  Uiso   1.00
O1810  O     0.99227   0.67201   0.10805   0.00000  Uiso   1.00
O1811  O     0.96701   0.64438   0.48210   0.00000  Uiso   1.00
O1812  O     0.97208   0.64167   0.23271   0.00000  Uiso   1.00
O1813  O     0.99276   0.67357   0.85593   0.00000  Uiso   1.00
O1814  O     0.96952   0.64215   0.98045   0.00000  Uiso   1.00
O1815  O     0.98967   0.67445   0.60711   0.00000  Uiso   1.00
O1816  O     0.96386   0.64595   0.73072   0.00000  Uiso   1.00
O1817  O     0.75534   0.82747   0.34200   0.00000  Uiso   1.00
O1818  O     0.99308   0.99699   0.21649   0.00000  Uiso   1.00
O1819  O     0.99569   0.99807   0.46483   0.00000  Uiso   1.00
O1820  O     0.75113   0.83051   0.09180   0.00000  Uiso   1.00
O1821  O     0.75767   0.83163   0.84397   0.00000  Uiso   1.00
O1822  O     0.75975   0.83016   0.59209   0.00000  Uiso   1.00
O1823  O     0.99084   0.99903   0.96435   0.00000  Uiso   1.00
O1824  O     0.99061   0.99716   0.71404   0.00000  Uiso   1.00
