data_final_Cl-Fe-SABVOH01
_audit_creation_date              2022-12-15
_audit_creation_method            'Materials Studio'
_symmetry_space_group_name_H-M    'P1'
_symmetry_Int_Tables_number       1
_symmetry_cell_setting            triclinic
loop_
_symmetry_equiv_pos_as_xyz
  x,y,z
_cell_length_a                    33.1005
_cell_length_b                    35.7729
_cell_length_c                    25.6122
_cell_angle_alpha                 90.0000
_cell_angle_beta                  90.0000
_cell_angle_gamma                 90.0000
loop_
_atom_site_label
_atom_site_type_symbol
_atom_site_fract_x
_atom_site_fract_y
_atom_site_fract_z
_atom_site_U_iso_or_equiv
_atom_site_adp_type
_atom_site_occupancy
Fe1    Fe    0.24278   0.15391   0.28200   0.00000  Uiso   1.00
Fe2    Fe    0.24307   0.15550   0.15554   0.00000  Uiso   1.00
Fe3    Fe    0.24533   0.15408   0.02975   0.00000  Uiso   1.00
Fe4    Fe    0.24442   0.15586   0.40665   0.00000  Uiso   1.00
Fe5    Fe    0.24576   0.15384   0.65770   0.00000  Uiso   1.00
Fe6    Fe    0.24464   0.15434   0.90552   0.00000  Uiso   1.00
Fe7    Fe    0.24554   0.15482   0.53139   0.00000  Uiso   1.00
Fe8    Fe    0.24739   0.15368   0.78261   0.00000  Uiso   1.00
Fe9    Fe    0.22917   0.52370   0.02362   0.00000  Uiso   1.00
Fe10   Fe    0.23046   0.52247   0.14870   0.00000  Uiso   1.00
Fe11   Fe    0.23269   0.52350   0.27381   0.00000  Uiso   1.00
Fe12   Fe    0.23216   0.52275   0.39797   0.00000  Uiso   1.00
Fe13   Fe    0.23354   0.52284   0.52325   0.00000  Uiso   1.00
Fe14   Fe    0.23263   0.52638   0.64859   0.00000  Uiso   1.00
Fe15   Fe    0.23279   0.52456   0.77212   0.00000  Uiso   1.00
Fe16   Fe    0.22957   0.52352   0.89889   0.00000  Uiso   1.00
Fe17   Fe    0.23870   0.84222   0.02228   0.00000  Uiso   1.00
Fe18   Fe    0.24215   0.84461   0.39623   0.00000  Uiso   1.00
Fe19   Fe    0.23875   0.84172   0.14696   0.00000  Uiso   1.00
Fe20   Fe    0.23932   0.84139   0.27175   0.00000  Uiso   1.00
Fe21   Fe    0.24218   0.84256   0.64712   0.00000  Uiso   1.00
Fe22   Fe    0.23719   0.83987   0.89713   0.00000  Uiso   1.00
Fe23   Fe    0.24308   0.84353   0.52283   0.00000  Uiso   1.00
Fe24   Fe    0.23839   0.84303   0.77360   0.00000  Uiso   1.00
Fe25   Fe    0.48669   0.34538   0.02880   0.00000  Uiso   1.00
Fe26   Fe    0.48848   0.34517   0.15564   0.00000  Uiso   1.00
Fe27   Fe    0.48846   0.34674   0.28089   0.00000  Uiso   1.00
Fe28   Fe    0.49050   0.34797   0.40570   0.00000  Uiso   1.00
Fe29   Fe    0.48805   0.34673   0.53123   0.00000  Uiso   1.00
Fe30   Fe    0.48571   0.34535   0.65484   0.00000  Uiso   1.00
Fe31   Fe    0.48634   0.34591   0.78007   0.00000  Uiso   1.00
Fe32   Fe    0.48661   0.34618   0.90434   0.00000  Uiso   1.00
Fe33   Fe    0.49196   0.68581   0.03258   0.00000  Uiso   1.00
Fe34   Fe    0.49395   0.68579   0.28282   0.00000  Uiso   1.00
Fe35   Fe    0.49254   0.68549   0.15622   0.00000  Uiso   1.00
Fe36   Fe    0.49628   0.68588   0.40662   0.00000  Uiso   1.00
Fe37   Fe    0.49461   0.68574   0.78109   0.00000  Uiso   1.00
Fe38   Fe    0.49328   0.68573   0.90820   0.00000  Uiso   1.00
Fe39   Fe    0.49611   0.68486   0.53245   0.00000  Uiso   1.00
Fe40   Fe    0.49418   0.68406   0.65715   0.00000  Uiso   1.00
Fe41   Fe    0.49160   0.98461   0.15512   0.00000  Uiso   1.00
Fe42   Fe    0.49074   0.98233   0.27951   0.00000  Uiso   1.00
Fe43   Fe    0.49334   0.98396   0.02861   0.00000  Uiso   1.00
Fe44   Fe    0.49247   0.97982   0.40424   0.00000  Uiso   1.00
Fe45   Fe    0.49394   0.97986   0.65328   0.00000  Uiso   1.00
Fe46   Fe    0.49366   0.98219   0.90203   0.00000  Uiso   1.00
Fe47   Fe    0.49514   0.97939   0.52917   0.00000  Uiso   1.00
Fe48   Fe    0.49344   0.98245   0.77802   0.00000  Uiso   1.00
Fe49   Fe    0.73647   0.16443   0.02809   0.00000  Uiso   1.00
Fe50   Fe    0.73497   0.16354   0.15503   0.00000  Uiso   1.00
Fe51   Fe    0.73611   0.16425   0.28206   0.00000  Uiso   1.00
Fe52   Fe    0.73645   0.16482   0.40584   0.00000  Uiso   1.00
Fe53   Fe    0.73477   0.16472   0.53002   0.00000  Uiso   1.00
Fe54   Fe    0.73379   0.16257   0.65675   0.00000  Uiso   1.00
Fe55   Fe    0.73512   0.16312   0.78051   0.00000  Uiso   1.00
Fe56   Fe    0.73569   0.16463   0.90373   0.00000  Uiso   1.00
Fe57   Fe    0.74659   0.51723   0.39987   0.00000  Uiso   1.00
Fe58   Fe    0.74556   0.51779   0.27472   0.00000  Uiso   1.00
Fe59   Fe    0.74408   0.52095   0.15070   0.00000  Uiso   1.00
Fe60   Fe    0.74354   0.51861   0.02672   0.00000  Uiso   1.00
Fe61   Fe    0.74355   0.51416   0.77955   0.00000  Uiso   1.00
Fe62   Fe    0.74445   0.51586   0.65283   0.00000  Uiso   1.00
Fe63   Fe    0.74439   0.51596   0.90318   0.00000  Uiso   1.00
Fe64   Fe    0.74655   0.51653   0.52633   0.00000  Uiso   1.00
Fe65   Fe    0.74285   0.83370   0.41642   0.00000  Uiso   1.00
Fe66   Fe    0.74179   0.83376   0.03970   0.00000  Uiso   1.00
Fe67   Fe    0.74064   0.83239   0.16561   0.00000  Uiso   1.00
Fe68   Fe    0.74238   0.83012   0.29251   0.00000  Uiso   1.00
Fe69   Fe    0.74289   0.83298   0.54107   0.00000  Uiso   1.00
Fe70   Fe    0.74303   0.83242   0.66621   0.00000  Uiso   1.00
Fe71   Fe    0.74206   0.83207   0.91658   0.00000  Uiso   1.00
Fe72   Fe    0.74277   0.83093   0.79295   0.00000  Uiso   1.00
Fe73   Fe    0.99052   0.33012   0.39989   0.00000  Uiso   1.00
Fe74   Fe    0.99237   0.33005   0.02156   0.00000  Uiso   1.00
Fe75   Fe    0.99089   0.33239   0.27502   0.00000  Uiso   1.00
Fe76   Fe    0.99264   0.33013   0.14890   0.00000  Uiso   1.00
Fe77   Fe    0.99206   0.32906   0.52328   0.00000  Uiso   1.00
Fe78   Fe    0.99224   0.33315   0.89799   0.00000  Uiso   1.00
Fe79   Fe    0.99468   0.33347   0.64769   0.00000  Uiso   1.00
Fe80   Fe    0.99610   0.33442   0.77335   0.00000  Uiso   1.00
Fe81   Fe    0.98517   0.69717   0.01486   0.00000  Uiso   1.00
Fe82   Fe    0.98859   0.70027   0.14028   0.00000  Uiso   1.00
Fe83   Fe    0.98777   0.69899   0.26504   0.00000  Uiso   1.00
Fe84   Fe    0.98611   0.70262   0.38948   0.00000  Uiso   1.00
Fe85   Fe    0.98839   0.70080   0.51532   0.00000  Uiso   1.00
Fe86   Fe    0.98849   0.70242   0.64081   0.00000  Uiso   1.00
Fe87   Fe    0.98869   0.69786   0.76711   0.00000  Uiso   1.00
Fe88   Fe    0.98736   0.69488   0.89044   0.00000  Uiso   1.00
Fe89   Fe    0.98002   0.98875   0.02707   0.00000  Uiso   1.00
Fe90   Fe    0.98148   0.99077   0.40050   0.00000  Uiso   1.00
Fe91   Fe    0.97953   0.99139   0.15079   0.00000  Uiso   1.00
Fe92   Fe    0.98041   0.98965   0.27583   0.00000  Uiso   1.00
Fe93   Fe    0.98204   0.98921   0.77651   0.00000  Uiso   1.00
Fe94   Fe    0.98264   0.98776   0.90243   0.00000  Uiso   1.00
Fe95   Fe    0.98239   0.99054   0.52494   0.00000  Uiso   1.00
Fe96   Fe    0.98443   0.99039   0.64981   0.00000  Uiso   1.00
Cl97   Cl    0.06460   0.07712   0.04967   0.00000  Uiso   1.00
Cl98   Cl    0.05977   0.07399   0.29812   0.00000  Uiso   1.00
Cl99   Cl    0.18554   0.04261   0.12206   0.00000  Uiso   1.00
Cl100  Cl    0.12049   0.17719   0.43712   0.00000  Uiso   1.00
Cl101  Cl    0.14059   0.10748   0.56111   0.00000  Uiso   1.00
Cl102  Cl    0.13364   0.12027   0.79584   0.00000  Uiso   1.00
Cl103  Cl    0.19428   0.03553   0.87730   0.00000  Uiso   1.00
Cl104  Cl    0.12227   0.35186   0.12272   0.00000  Uiso   1.00
Cl105  Cl    0.09377   0.27717   0.23680   0.00000  Uiso   1.00
Cl106  Cl    0.11773   0.35906   0.36449   0.00000  Uiso   1.00
Cl107  Cl    0.04153   0.20870   0.17264   0.00000  Uiso   1.00
Cl108  Cl    0.04804   0.21996   0.93190   0.00000  Uiso   1.00
Cl109  Cl    0.12207   0.35160   0.87088   0.00000  Uiso   1.00
Cl110  Cl    0.03708   0.21011   0.66711   0.00000  Uiso   1.00
Cl111  Cl    0.16982   0.24977   0.74840   0.00000  Uiso   1.00
Cl112  Cl    0.18242   0.25231   0.51504   0.00000  Uiso   1.00
Cl113  Cl    0.16869   0.24471   0.99736   0.00000  Uiso   1.00
Cl114  Cl    0.02774   0.57318   0.24955   0.00000  Uiso   1.00
Cl115  Cl    0.13002   0.46555   0.31203   0.00000  Uiso   1.00
Cl116  Cl    0.01065   0.55517   0.12122   0.00000  Uiso   1.00
Cl117  Cl    0.13175   0.45877   0.06491   0.00000  Uiso   1.00
Cl118  Cl    0.02548   0.56988   0.49816   0.00000  Uiso   1.00
Cl119  Cl    0.05949   0.43703   0.78741   0.00000  Uiso   1.00
Cl120  Cl    0.19853   0.40389   0.63202   0.00000  Uiso   1.00
Cl121  Cl    0.13051   0.46430   0.56209   0.00000  Uiso   1.00
Cl122  Cl    0.11056   0.53958   0.72295   0.00000  Uiso   1.00
Cl123  Cl    0.20528   0.71603   0.37197   0.00000  Uiso   1.00
Cl124  Cl    0.20701   0.70522   0.13412   0.00000  Uiso   1.00
Cl125  Cl    0.15811   0.77085   0.06538   0.00000  Uiso   1.00
Cl126  Cl    0.16688   0.63279   0.04351   0.00000  Uiso   1.00
Cl127  Cl    0.08805   0.76728   0.30868   0.00000  Uiso   1.00
Cl128  Cl    0.15845   0.62663   0.41479   0.00000  Uiso   1.00
Cl129  Cl    0.20453   0.71852   0.62166   0.00000  Uiso   1.00
Cl130  Cl    0.12261   0.67790   0.86338   0.00000  Uiso   1.00
Cl131  Cl    0.08563   0.77935   0.54390   0.00000  Uiso   1.00
Cl132  Cl    0.15834   0.62637   0.65495   0.00000  Uiso   1.00
Cl133  Cl    0.08572   0.76410   0.80410   0.00000  Uiso   1.00
Cl134  Cl    0.05045   0.60977   0.93767   0.00000  Uiso   1.00
Cl135  Cl    0.14416   0.91299   0.24488   0.00000  Uiso   1.00
Cl136  Cl    0.02630   0.87230   0.18511   0.00000  Uiso   1.00
Cl137  Cl    0.02976   0.86361   0.42645   0.00000  Uiso   1.00
Cl138  Cl    0.13950   0.89994   0.48098   0.00000  Uiso   1.00
Cl139  Cl    0.11797   0.99587   0.37073   0.00000  Uiso   1.00
Cl140  Cl    0.14083   0.90644   0.73909   0.00000  Uiso   1.00
Cl141  Cl    0.03068   0.86519   0.67809   0.00000  Uiso   1.00
Cl142  Cl    0.02371   0.85920   0.92179   0.00000  Uiso   1.00
Cl143  Cl    0.12526   0.98587   0.64570   0.00000  Uiso   1.00
Cl144  Cl    0.12516   0.88508   0.97625   0.00000  Uiso   1.00
Cl145  Cl    0.32479   0.06370   0.12740   0.00000  Uiso   1.00
Cl146  Cl    0.44205   0.10650   0.31276   0.00000  Uiso   1.00
Cl147  Cl    0.45715   0.11414   0.04836   0.00000  Uiso   1.00
Cl148  Cl    0.32924   0.07208   0.36926   0.00000  Uiso   1.00
Cl149  Cl    0.36087   0.19039   0.16042   0.00000  Uiso   1.00
Cl150  Cl    0.32612   0.06054   0.63231   0.00000  Uiso   1.00
Cl151  Cl    0.32462   0.05991   0.88644   0.00000  Uiso   1.00
Cl152  Cl    0.45935   0.11162   0.79634   0.00000  Uiso   1.00
Cl153  Cl    0.44956   0.10256   0.55568   0.00000  Uiso   1.00
Cl154  Cl    0.43947   0.23451   0.27207   0.00000  Uiso   1.00
Cl155  Cl    0.28726   0.27154   0.41374   0.00000  Uiso   1.00
Cl156  Cl    0.34586   0.33252   0.02129   0.00000  Uiso   1.00
Cl157  Cl    0.27951   0.27852   0.66700   0.00000  Uiso   1.00
Cl158  Cl    0.35601   0.32931   0.76850   0.00000  Uiso   1.00
Cl159  Cl    0.35642   0.20314   0.93999   0.00000  Uiso   1.00
Cl160  Cl    0.41855   0.24948   0.50851   0.00000  Uiso   1.00
Cl161  Cl    0.31437   0.42882   0.11773   0.00000  Uiso   1.00
Cl162  Cl    0.34511   0.56287   0.25246   0.00000  Uiso   1.00
Cl163  Cl    0.42921   0.45623   0.31222   0.00000  Uiso   1.00
Cl164  Cl    0.30637   0.42414   0.38821   0.00000  Uiso   1.00
Cl165  Cl    0.43598   0.46747   0.04874   0.00000  Uiso   1.00
Cl166  Cl    0.31831   0.44098   0.61339   0.00000  Uiso   1.00
Cl167  Cl    0.43191   0.46416   0.56100   0.00000  Uiso   1.00
Cl168  Cl    0.42781   0.45527   0.81297   0.00000  Uiso   1.00
Cl169  Cl    0.31152   0.42988   0.86937   0.00000  Uiso   1.00
Cl170  Cl    0.35863   0.68286   0.42874   0.00000  Uiso   1.00
Cl171  Cl    0.28145   0.64039   0.18118   0.00000  Uiso   1.00
Cl172  Cl    0.41049   0.75426   0.32549   0.00000  Uiso   1.00
Cl173  Cl    0.39966   0.74369   0.56870   0.00000  Uiso   1.00
Cl174  Cl    0.28062   0.64250   0.93104   0.00000  Uiso   1.00
Cl175  Cl    0.42942   0.77654   0.82783   0.00000  Uiso   1.00
Cl176  Cl    0.28637   0.64382   0.67624   0.00000  Uiso   1.00
Cl177  Cl    0.40186   0.61310   0.99448   0.00000  Uiso   1.00
Cl178  Cl    0.31747   0.74947   0.89909   0.00000  Uiso   1.00
Cl179  Cl    0.40824   0.60482   0.75661   0.00000  Uiso   1.00
Cl180  Cl    0.41901   0.60359   0.50478   0.00000  Uiso   1.00
Cl181  Cl    0.37109   0.84507   0.11796   0.00000  Uiso   1.00
Cl182  Cl    0.27549   0.97860   0.40891   0.00000  Uiso   1.00
Cl183  Cl    0.38255   0.85229   0.37426   0.00000  Uiso   1.00
Cl184  Cl    0.39175   0.91345   0.49473   0.00000  Uiso   1.00
Cl185  Cl    0.36564   0.98642   0.19791   0.00000  Uiso   1.00
Cl186  Cl    0.39582   0.90368   0.25390   0.00000  Uiso   1.00
Cl187  Cl    0.46026   0.82490   0.02789   0.00000  Uiso   1.00
Cl188  Cl    0.28022   0.96278   0.68072   0.00000  Uiso   1.00
Cl189  Cl    0.29857   0.94075   0.97622   0.00000  Uiso   1.00
Cl190  Cl    0.37234   0.84647   0.62275   0.00000  Uiso   1.00
Cl191  Cl    0.41384   0.88873   0.86984   0.00000  Uiso   1.00
Cl192  Cl    0.26852   0.99041   0.80459   0.00000  Uiso   1.00
Cl193  Cl    0.65098   0.08638   0.11076   0.00000  Uiso   1.00
Cl194  Cl    0.54326   0.08509   0.41438   0.00000  Uiso   1.00
Cl195  Cl    0.71322   0.03055   0.03861   0.00000  Uiso   1.00
Cl196  Cl    0.61098   0.18819   0.25014   0.00000  Uiso   1.00
Cl197  Cl    0.61016   0.01193   0.32395   0.00000  Uiso   1.00
Cl198  Cl    0.56498   0.07268   0.89046   0.00000  Uiso   1.00
Cl199  Cl    0.68136   0.05438   0.82493   0.00000  Uiso   1.00
Cl200  Cl    0.59919   0.02811   0.60443   0.00000  Uiso   1.00
Cl201  Cl    0.59863   0.17421   0.75630   0.00000  Uiso   1.00
Cl202  Cl    0.70806   0.03367   0.52003   0.00000  Uiso   1.00
Cl203  Cl    0.66676   0.26265   0.17644   0.00000  Uiso   1.00
Cl204  Cl    0.60254   0.30934   0.42966   0.00000  Uiso   1.00
Cl205  Cl    0.53329   0.23151   0.49456   0.00000  Uiso   1.00
Cl206  Cl    0.69382   0.39528   0.29575   0.00000  Uiso   1.00
Cl207  Cl    0.59397   0.30263   0.92858   0.00000  Uiso   1.00
Cl208  Cl    0.64719   0.23971   0.70023   0.00000  Uiso   1.00
Cl209  Cl    0.69399   0.39843   0.55371   0.00000  Uiso   1.00
Cl210  Cl    0.53616   0.23048   0.99749   0.00000  Uiso   1.00
Cl211  Cl    0.56948   0.44049   0.37530   0.00000  Uiso   1.00
Cl212  Cl    0.56678   0.44513   0.12829   0.00000  Uiso   1.00
Cl213  Cl    0.53853   0.55878   0.18248   0.00000  Uiso   1.00
Cl214  Cl    0.53563   0.55774   0.43335   0.00000  Uiso   1.00
Cl215  Cl    0.65100   0.59443   0.24162   0.00000  Uiso   1.00
Cl216  Cl    0.69161   0.40020   0.05865   0.00000  Uiso   1.00
Cl217  Cl    0.65101   0.59282   0.74180   0.00000  Uiso   1.00
Cl218  Cl    0.68476   0.40885   0.81095   0.00000  Uiso   1.00
Cl219  Cl    0.56471   0.44051   0.88439   0.00000  Uiso   1.00
Cl220  Cl    0.53510   0.55879   0.93228   0.00000  Uiso   1.00
Cl221  Cl    0.53575   0.55736   0.67965   0.00000  Uiso   1.00
Cl222  Cl    0.56723   0.43107   0.62048   0.00000  Uiso   1.00
Cl223  Cl    0.71853   0.68224   0.24359   0.00000  Uiso   1.00
Cl224  Cl    0.62009   0.69105   0.36615   0.00000  Uiso   1.00
Cl225  Cl    0.56719   0.78711   0.20642   0.00000  Uiso   1.00
Cl226  Cl    0.69285   0.73953   0.08483   0.00000  Uiso   1.00
Cl227  Cl    0.68835   0.73897   0.58943   0.00000  Uiso   1.00
Cl228  Cl    0.57054   0.78704   0.74939   0.00000  Uiso   1.00
Cl229  Cl    0.71928   0.67919   0.71289   0.00000  Uiso   1.00
Cl230  Cl    0.61711   0.69161   0.86579   0.00000  Uiso   1.00
Cl231  Cl    0.66562   0.60860   0.50750   0.00000  Uiso   1.00
Cl232  Cl    0.65219   0.60431   0.99304   0.00000  Uiso   1.00
Cl233  Cl    0.67169   0.91699   0.29758   0.00000  Uiso   1.00
Cl234  Cl    0.54656   0.88617   0.20220   0.00000  Uiso   1.00
Cl235  Cl    0.51091   0.84282   0.39468   0.00000  Uiso   1.00
Cl236  Cl    0.61717   0.82480   0.49711   0.00000  Uiso   1.00
Cl237  Cl    0.67151   0.92179   0.80505   0.00000  Uiso   1.00
Cl238  Cl    0.54369   0.88546   0.70527   0.00000  Uiso   1.00
Cl239  Cl    0.51500   0.83767   0.89151   0.00000  Uiso   1.00
Cl240  Cl    0.61775   0.82686   0.99247   0.00000  Uiso   1.00
Cl241  Cl    0.80826   0.06990   0.38178   0.00000  Uiso   1.00
Cl242  Cl    0.81894   0.08106   0.12069   0.00000  Uiso   1.00
Cl243  Cl    0.94246   0.11821   0.04384   0.00000  Uiso   1.00
Cl244  Cl    0.94142   0.11271   0.30622   0.00000  Uiso   1.00
Cl245  Cl    0.82831   0.08846   0.61679   0.00000  Uiso   1.00
Cl246  Cl    0.81597   0.07407   0.87340   0.00000  Uiso   1.00
Cl247  Cl    0.93826   0.11010   0.81297   0.00000  Uiso   1.00
Cl248  Cl    0.94227   0.11773   0.54846   0.00000  Uiso   1.00
Cl249  Cl    0.91934   0.22811   0.40764   0.00000  Uiso   1.00
Cl250  Cl    0.77849   0.28675   0.26268   0.00000  Uiso   1.00
Cl251  Cl    0.83208   0.21729   0.19280   0.00000  Uiso   1.00
Cl252  Cl    0.83845   0.21544   0.93532   0.00000  Uiso   1.00
Cl253  Cl    0.86164   0.31884   0.73999   0.00000  Uiso   1.00
Cl254  Cl    0.88597   0.38247   0.55894   0.00000  Uiso   1.00
Cl255  Cl    0.78297   0.28081   0.51114   0.00000  Uiso   1.00
Cl256  Cl    0.91591   0.23332   0.67699   0.00000  Uiso   1.00
Cl257  Cl    0.86571   0.31241   0.99140   0.00000  Uiso   1.00
Cl258  Cl    0.82393   0.42763   0.05788   0.00000  Uiso   1.00
Cl259  Cl    0.87341   0.49214   0.36431   0.00000  Uiso   1.00
Cl260  Cl    0.94995   0.44852   0.12002   0.00000  Uiso   1.00
Cl261  Cl    0.84463   0.58106   0.43964   0.00000  Uiso   1.00
Cl262  Cl    0.81500   0.41997   0.28894   0.00000  Uiso   1.00
Cl263  Cl    0.94148   0.44924   0.62083   0.00000  Uiso   1.00
Cl264  Cl    0.85113   0.57218   0.67776   0.00000  Uiso   1.00
Cl265  Cl    0.95165   0.45648   0.87731   0.00000  Uiso   1.00
Cl266  Cl    0.84647   0.57355   0.93222   0.00000  Uiso   1.00
Cl267  Cl    0.81754   0.41701   0.79783   0.00000  Uiso   1.00
Cl268  Cl    0.77206   0.64740   0.00100   0.00000  Uiso   1.00
Cl269  Cl    0.84848   0.69093   0.49724   0.00000  Uiso   1.00
Cl270  Cl    0.85210   0.68845   0.24133   0.00000  Uiso   1.00
Cl271  Cl    0.91059   0.61871   0.17180   0.00000  Uiso   1.00
Cl272  Cl    0.84600   0.68384   0.74104   0.00000  Uiso   1.00
Cl273  Cl    0.76835   0.96805   0.18074   0.00000  Uiso   1.00
Cl274  Cl    0.77340   0.95940   0.44235   0.00000  Uiso   1.00
Cl275  Cl    0.85527   0.86351   0.37800   0.00000  Uiso   1.00
Cl276  Cl    0.87564   0.92888   0.23605   0.00000  Uiso   1.00
Cl277  Cl    0.96942   0.81726   0.05245   0.00000  Uiso   1.00
Cl278  Cl    0.85233   0.86597   0.12779   0.00000  Uiso   1.00
Cl279  Cl    0.96676   0.82143   0.29945   0.00000  Uiso   1.00
Cl280  Cl    0.87705   0.93023   0.48834   0.00000  Uiso   1.00
Cl281  Cl    0.77462   0.96683   0.69036   0.00000  Uiso   1.00
Cl282  Cl    0.76954   0.96512   0.93506   0.00000  Uiso   1.00
Cl283  Cl    0.85949   0.85945   0.87731   0.00000  Uiso   1.00
Cl284  Cl    0.85754   0.86015   0.63168   0.00000  Uiso   1.00
Cl285  Cl    0.87762   0.91984   0.74194   0.00000  Uiso   1.00
Cl286  Cl    0.97076   0.81617   0.55285   0.00000  Uiso   1.00
Cl287  Cl    0.96531   0.82142   0.80992   0.00000  Uiso   1.00
Cl288  Cl    0.88001   0.91894   0.99443   0.00000  Uiso   1.00
H289   H     0.14344   0.09683   0.03253   0.00000  Uiso   1.00
H290   H     0.13828   0.09688   0.28824   0.00000  Uiso   1.00
H291   H     0.10962   0.01002   0.13970   0.00000  Uiso   1.00
H292   H     0.18200   0.04340   0.39933   0.00000  Uiso   1.00
H293   H     0.12220   0.18229   0.15926   0.00000  Uiso   1.00
H294   H     0.24396   0.10997   0.34437   0.00000  Uiso   1.00
H295   H     0.00612   0.03137   0.08842   0.00000  Uiso   1.00
H296   H     0.24081   0.10967   0.09426   0.00000  Uiso   1.00
H297   H     0.07789   0.05567   0.53701   0.00000  Uiso   1.00
H298   H     0.18712   0.03704   0.66342   0.00000  Uiso   1.00
H299   H     0.07525   0.06598   0.78333   0.00000  Uiso   1.00
H300   H     0.00341   0.03265   0.83780   0.00000  Uiso   1.00
H301   H     0.11934   0.18539   0.66017   0.00000  Uiso   1.00
H302   H     0.11301   0.00531   0.89915   0.00000  Uiso   1.00
H303   H     0.12765   0.19529   0.91763   0.00000  Uiso   1.00
H304   H     0.24968   0.10849   0.59567   0.00000  Uiso   1.00
H305   H     0.22598   0.19488   0.71789   0.00000  Uiso   1.00
H306   H     0.15941   0.23894   0.26983   0.00000  Uiso   1.00
H307   H     0.09179   0.27520   0.01742   0.00000  Uiso   1.00
H308   H     0.05898   0.23028   0.40962   0.00000  Uiso   1.00
H309   H     0.24268   0.20138   0.46768   0.00000  Uiso   1.00
H310   H     0.23086   0.20245   0.22142   0.00000  Uiso   1.00
H311   H     0.08367   0.39974   0.04095   0.00000  Uiso   1.00
H312   H     0.00053   0.38062   0.33626   0.00000  Uiso   1.00
H313   H     0.23500   0.20129   0.96728   0.00000  Uiso   1.00
H314   H     0.10150   0.28065   0.52030   0.00000  Uiso   1.00
H315   H     0.11763   0.36967   0.63745   0.00000  Uiso   1.00
H316   H     0.09575   0.27665   0.76753   0.00000  Uiso   1.00
H317   H     0.00870   0.38048   0.83967   0.00000  Uiso   1.00
H318   H     0.24212   0.47370   0.33995   0.00000  Uiso   1.00
H319   H     0.09287   0.53191   0.13087   0.00000  Uiso   1.00
H320   H     0.22849   0.57047   0.21252   0.00000  Uiso   1.00
H321   H     0.11089   0.55024   0.26976   0.00000  Uiso   1.00
H322   H     0.22047   0.56980   0.46152   0.00000  Uiso   1.00
H323   H     0.17789   0.41296   0.39023   0.00000  Uiso   1.00
H324   H     0.17226   0.41339   0.14246   0.00000  Uiso   1.00
H325   H     0.07665   0.41219   0.29006   0.00000  Uiso   1.00
H326   H     0.24455   0.47661   0.08646   0.00000  Uiso   1.00
H327   H     0.11848   0.56898   0.91329   0.00000  Uiso   1.00
H328   H     0.21251   0.56898   0.70912   0.00000  Uiso   1.00
H329   H     0.21769   0.57033   0.96145   0.00000  Uiso   1.00
H330   H     0.13101   0.46832   0.77272   0.00000  Uiso   1.00
H331   H     0.23581   0.47710   0.83381   0.00000  Uiso   1.00
H332   H     0.10188   0.53957   0.52381   0.00000  Uiso   1.00
H333   H     0.07790   0.40493   0.53700   0.00000  Uiso   1.00
H334   H     0.18344   0.40798   0.89697   0.00000  Uiso   1.00
H335   H     0.04657   0.58816   0.74822   0.00000  Uiso   1.00
H336   H     0.24038   0.47899   0.59065   0.00000  Uiso   1.00
H337   H     0.08796   0.65544   0.04950   0.00000  Uiso   1.00
H338   H     0.09738   0.72716   0.04058   0.00000  Uiso   1.00
H339   H     0.12228   0.69593   0.14189   0.00000  Uiso   1.00
H340   H     0.00523   0.74466   0.07759   0.00000  Uiso   1.00
H341   H     0.16991   0.77149   0.29533   0.00000  Uiso   1.00
H342   H     0.07451   0.64423   0.40354   0.00000  Uiso   1.00
H343   H     0.11630   0.70615   0.38329   0.00000  Uiso   1.00
H344   H     0.00785   0.74380   0.32340   0.00000  Uiso   1.00
H345   H     0.16829   0.77653   0.78691   0.00000  Uiso   1.00
H346   H     0.07540   0.64503   0.64704   0.00000  Uiso   1.00
H347   H     0.12101   0.70115   0.63540   0.00000  Uiso   1.00
H348   H     0.18496   0.72824   0.88295   0.00000  Uiso   1.00
H349   H     0.01328   0.74336   0.57689   0.00000  Uiso   1.00
H350   H     0.16607   0.77544   0.53898   0.00000  Uiso   1.00
H351   H     0.00186   0.74139   0.82986   0.00000  Uiso   1.00
H352   H     0.21413   0.88081   0.21259   0.00000  Uiso   1.00
H353   H     0.10976   0.84567   0.15749   0.00000  Uiso   1.00
H354   H     0.06828   0.93353   0.26764   0.00000  Uiso   1.00
H355   H     0.10966   0.84122   0.40392   0.00000  Uiso   1.00
H356   H     0.21727   0.88583   0.45840   0.00000  Uiso   1.00
H357   H     0.05029   0.90170   0.00236   0.00000  Uiso   1.00
H358   H     0.11167   0.84342   0.65695   0.00000  Uiso   1.00
H359   H     0.21259   0.88480   0.70614   0.00000  Uiso   1.00
H360   H     0.06558   0.92340   0.76248   0.00000  Uiso   1.00
H361   H     0.10651   0.83426   0.89957   0.00000  Uiso   1.00
H362   H     0.21538   0.88296   0.95924   0.00000  Uiso   1.00
H363   H     0.06442   0.92060   0.50660   0.00000  Uiso   1.00
H364   H     0.40395   0.04600   0.39018   0.00000  Uiso   1.00
H365   H     0.40869   0.05274   0.13980   0.00000  Uiso   1.00
H366   H     0.36070   0.12171   0.29373   0.00000  Uiso   1.00
H367   H     0.37613   0.13471   0.03573   0.00000  Uiso   1.00
H368   H     0.41118   0.04650   0.63730   0.00000  Uiso   1.00
H369   H     0.40664   0.04937   0.88964   0.00000  Uiso   1.00
H370   H     0.37794   0.13158   0.78524   0.00000  Uiso   1.00
H371   H     0.36844   0.12337   0.54252   0.00000  Uiso   1.00
H372   H     0.25063   0.10786   0.83890   0.00000  Uiso   1.00
H373   H     0.35450   0.00450   0.80818   0.00000  Uiso   1.00
H374   H     0.48309   0.29786   0.22147   0.00000  Uiso   1.00
H375   H     0.49172   0.39612   0.34154   0.00000  Uiso   1.00
H376   H     0.41097   0.25124   0.14873   0.00000  Uiso   1.00
H377   H     0.35929   0.31221   0.39764   0.00000  Uiso   1.00
H378   H     0.29070   0.27661   0.03867   0.00000  Uiso   1.00
H379   H     0.48251   0.30096   0.47150   0.00000  Uiso   1.00
H380   H     0.48775   0.39449   0.09063   0.00000  Uiso   1.00
H381   H     0.38205   0.39617   0.40007   0.00000  Uiso   1.00
H382   H     0.38452   0.39858   0.14857   0.00000  Uiso   1.00
H383   H     0.36297   0.20037   0.28303   0.00000  Uiso   1.00
H384   H     0.34480   0.21411   0.51905   0.00000  Uiso   1.00
H385   H     0.35697   0.31580   0.65157   0.00000  Uiso   1.00
H386   H     0.48029   0.29785   0.71858   0.00000  Uiso   1.00
H387   H     0.41452   0.25057   0.90683   0.00000  Uiso   1.00
H388   H     0.29981   0.27314   0.78695   0.00000  Uiso   1.00
H389   H     0.47586   0.29881   0.96881   0.00000  Uiso   1.00
H390   H     0.49505   0.39418   0.59707   0.00000  Uiso   1.00
H391   H     0.38287   0.39626   0.90143   0.00000  Uiso   1.00
H392   H     0.35443   0.49104   0.28433   0.00000  Uiso   1.00
H393   H     0.35795   0.49814   0.02449   0.00000  Uiso   1.00
H394   H     0.32324   0.59169   0.00655   0.00000  Uiso   1.00
H395   H     0.35398   0.48816   0.79192   0.00000  Uiso   1.00
H396   H     0.39037   0.41162   0.63456   0.00000  Uiso   1.00
H397   H     0.33272   0.58518   0.77050   0.00000  Uiso   1.00
H398   H     0.36130   0.49524   0.53584   0.00000  Uiso   1.00
H399   H     0.33982   0.57171   0.52157   0.00000  Uiso   1.00
H400   H     0.25440   0.79827   0.33193   0.00000  Uiso   1.00
H401   H     0.35670   0.67311   0.15903   0.00000  Uiso   1.00
H402   H     0.29127   0.63412   0.40266   0.00000  Uiso   1.00
H403   H     0.40363   0.61843   0.27364   0.00000  Uiso   1.00
H404   H     0.49806   0.64167   0.46977   0.00000  Uiso   1.00
H405   H     0.47354   0.64073   0.22437   0.00000  Uiso   1.00
H406   H     0.44524   0.79838   0.40256   0.00000  Uiso   1.00
H407   H     0.43968   0.79675   0.14301   0.00000  Uiso   1.00
H408   H     0.39475   0.72755   0.91760   0.00000  Uiso   1.00
H409   H     0.36523   0.67302   0.65232   0.00000  Uiso   1.00
H410   H     0.35800   0.67473   0.91082   0.00000  Uiso   1.00
H411   H     0.46988   0.64083   0.72222   0.00000  Uiso   1.00
H412   H     0.47550   0.64016   0.96862   0.00000  Uiso   1.00
H413   H     0.33930   0.78733   0.53789   0.00000  Uiso   1.00
H414   H     0.43473   0.79713   0.63619   0.00000  Uiso   1.00
H415   H     0.47007   0.94013   0.21594   0.00000  Uiso   1.00
H416   H     0.29229   0.95634   0.16884   0.00000  Uiso   1.00
H417   H     0.31579   0.91355   0.24719   0.00000  Uiso   1.00
H418   H     0.36101   0.98388   0.40728   0.00000  Uiso   1.00
H419   H     0.37472   0.84945   0.00795   0.00000  Uiso   1.00
H420   H     0.47981   0.93350   0.46858   0.00000  Uiso   1.00
H421   H     0.37233   0.96652   0.00873   0.00000  Uiso   1.00
H422   H     0.35023   0.80355   0.29937   0.00000  Uiso   1.00
H423   H     0.26760   0.80248   0.08308   0.00000  Uiso   1.00
H424   H     0.47001   0.93800   0.71057   0.00000  Uiso   1.00
H425   H     0.33205   0.87471   0.86349   0.00000  Uiso   1.00
H426   H     0.46748   0.94275   0.96865   0.00000  Uiso   1.00
H427   H     0.36508   0.97500   0.66375   0.00000  Uiso   1.00
H428   H     0.35589   0.80709   0.79937   0.00000  Uiso   1.00
H429   H     0.30787   0.92048   0.50248   0.00000  Uiso   1.00
H430   H     0.26667   0.80376   0.83171   0.00000  Uiso   1.00
H431   H     0.26515   0.80049   0.58344   0.00000  Uiso   1.00
H432   H     0.66911   0.06328   0.29808   0.00000  Uiso   1.00
H433   H     0.59803   0.03373   0.13470   0.00000  Uiso   1.00
H434   H     0.62109   0.12174   0.42972   0.00000  Uiso   1.00
H435   H     0.51510   0.02750   0.09054   0.00000  Uiso   1.00
H436   H     0.61361   0.19236   0.02308   0.00000  Uiso   1.00
H437   H     0.51275   0.02525   0.34148   0.00000  Uiso   1.00
H438   H     0.73920   0.11887   0.34549   0.00000  Uiso   1.00
H439   H     0.66539   0.07152   0.63295   0.00000  Uiso   1.00
H440   H     0.60954   0.19580   0.52277   0.00000  Uiso   1.00
H441   H     0.52511   0.01784   0.83997   0.00000  Uiso   1.00
H442   H     0.63080   0.10975   0.91665   0.00000  Uiso   1.00
H443   H     0.61138   0.01330   0.79201   0.00000  Uiso   1.00
H444   H     0.51870   0.02381   0.59216   0.00000  Uiso   1.00
H445   H     0.74762   0.11884   0.59069   0.00000  Uiso   1.00
H446   H     0.60811   0.37433   0.27950   0.00000  Uiso   1.00
H447   H     0.66403   0.25700   0.39754   0.00000  Uiso   1.00
H448   H     0.59069   0.28762   0.15410   0.00000  Uiso   1.00
H449   H     0.74144   0.21184   0.46665   0.00000  Uiso   1.00
H450   H     0.55208   0.24269   0.27070   0.00000  Uiso   1.00
H451   H     0.61648   0.36659   0.03217   0.00000  Uiso   1.00
H452   H     0.72631   0.21089   0.21723   0.00000  Uiso   1.00
H453   H     0.71793   0.20954   0.96601   0.00000  Uiso   1.00
H454   H     0.61283   0.37811   0.54157   0.00000  Uiso   1.00
H455   H     0.54196   0.23364   0.77777   0.00000  Uiso   1.00
H456   H     0.60886   0.38072   0.79301   0.00000  Uiso   1.00
H457   H     0.57626   0.27516   0.67433   0.00000  Uiso   1.00
H458   H     0.64670   0.24597   0.91382   0.00000  Uiso   1.00
H459   H     0.72122   0.20822   0.71681   0.00000  Uiso   1.00
H460   H     0.50024   0.39006   0.84170   0.00000  Uiso   1.00
H461   H     0.74698   0.56364   0.46213   0.00000  Uiso   1.00
H462   H     0.62169   0.53880   0.15472   0.00000  Uiso   1.00
H463   H     0.61360   0.53537   0.40897   0.00000  Uiso   1.00
H464   H     0.64664   0.46533   0.13955   0.00000  Uiso   1.00
H465   H     0.64762   0.45722   0.39169   0.00000  Uiso   1.00
H466   H     0.72294   0.56145   0.21489   0.00000  Uiso   1.00
H467   H     0.61234   0.53321   0.65291   0.00000  Uiso   1.00
H468   H     0.61671   0.53956   0.91139   0.00000  Uiso   1.00
H469   H     0.73037   0.56111   0.71717   0.00000  Uiso   1.00
H470   H     0.64549   0.45689   0.89375   0.00000  Uiso   1.00
H471   H     0.63981   0.45996   0.63901   0.00000  Uiso   1.00
H472   H     0.73213   0.56417   0.96572   0.00000  Uiso   1.00
H473   H     0.61081   0.71659   0.05831   0.00000  Uiso   1.00
H474   H     0.57445   0.61517   0.26230   0.00000  Uiso   1.00
H475   H     0.51943   0.72875   0.09474   0.00000  Uiso   1.00
H476   H     0.63447   0.66809   0.23356   0.00000  Uiso   1.00
H477   H     0.69562   0.72448   0.39739   0.00000  Uiso   1.00
H478   H     0.50612   0.73030   0.34386   0.00000  Uiso   1.00
H479   H     0.57605   0.62255   0.01555   0.00000  Uiso   1.00
H480   H     0.61367   0.72728   0.55623   0.00000  Uiso   1.00
H481   H     0.63165   0.66607   0.71087   0.00000  Uiso   1.00
H482   H     0.69455   0.72192   0.89492   0.00000  Uiso   1.00
H483   H     0.51877   0.72756   0.59660   0.00000  Uiso   1.00
H484   H     0.58407   0.62822   0.52236   0.00000  Uiso   1.00
H485   H     0.51775   0.72955   0.84645   0.00000  Uiso   1.00
H486   H     0.57713   0.61990   0.77117   0.00000  Uiso   1.00
H487   H     0.54877   0.86836   0.01270   0.00000  Uiso   1.00
H488   H     0.61790   0.84948   0.18233   0.00000  Uiso   1.00
H489   H     0.71430   0.87161   0.22998   0.00000  Uiso   1.00
H490   H     0.59004   0.93033   0.29166   0.00000  Uiso   1.00
H491   H     0.59533   0.81526   0.39296   0.00000  Uiso   1.00
H492   H     0.70460   0.86361   0.47997   0.00000  Uiso   1.00
H493   H     0.65137   0.80309   0.21556   0.00000  Uiso   1.00
H494   H     0.64003   0.99162   0.01337   0.00000  Uiso   1.00
H495   H     0.55354   0.87268   0.51477   0.00000  Uiso   1.00
H496   H     0.61457   0.85023   0.68559   0.00000  Uiso   1.00
H497   H     0.71087   0.87106   0.72971   0.00000  Uiso   1.00
H498   H     0.59028   0.94176   0.80264   0.00000  Uiso   1.00
H499   H     0.59836   0.81148   0.87569   0.00000  Uiso   1.00
H500   H     0.70476   0.86233   0.98180   0.00000  Uiso   1.00
H501   H     0.63035   0.99671   0.51114   0.00000  Uiso   1.00
H502   H     0.65346   0.80226   0.74065   0.00000  Uiso   1.00
H503   H     0.90101   0.06485   0.13419   0.00000  Uiso   1.00
H504   H     0.86210   0.13773   0.29336   0.00000  Uiso   1.00
H505   H     0.88882   0.04714   0.39571   0.00000  Uiso   1.00
H506   H     0.86463   0.14081   0.03349   0.00000  Uiso   1.00
H507   H     0.99779   0.03390   0.33309   0.00000  Uiso   1.00
H508   H     0.75067   0.11895   0.09117   0.00000  Uiso   1.00
H509   H     0.86270   0.14554   0.53031   0.00000  Uiso   1.00
H510   H     0.90731   0.06927   0.63560   0.00000  Uiso   1.00
H511   H     0.89554   0.05317   0.88764   0.00000  Uiso   1.00
H512   H     0.86033   0.14277   0.78548   0.00000  Uiso   1.00
H513   H     0.99693   0.03732   0.58692   0.00000  Uiso   1.00
H514   H     0.75539   0.11901   0.84170   0.00000  Uiso   1.00
H515   H     0.99784   0.28440   0.21183   0.00000  Uiso   1.00
H516   H     0.88429   0.38696   0.26873   0.00000  Uiso   1.00
H517   H     0.89336   0.26242   0.16770   0.00000  Uiso   1.00
H518   H     0.79938   0.27044   0.02197   0.00000  Uiso   1.00
H519   H     0.85990   0.31276   0.27319   0.00000  Uiso   1.00
H520   H     0.83754   0.21238   0.40530   0.00000  Uiso   1.00
H521   H     0.97913   0.28202   0.45847   0.00000  Uiso   1.00
H522   H     0.89230   0.39624   0.03612   0.00000  Uiso   1.00
H523   H     0.99977   0.37782   0.08562   0.00000  Uiso   1.00
H524   H     0.97524   0.28809   0.95843   0.00000  Uiso   1.00
H525   H     0.83560   0.21987   0.67016   0.00000  Uiso   1.00
H526   H     0.90064   0.25870   0.90702   0.00000  Uiso   1.00
H527   H     0.79541   0.27597   0.77043   0.00000  Uiso   1.00
H528   H     0.86203   0.30975   0.52620   0.00000  Uiso   1.00
H529   H     0.89231   0.38766   0.78040   0.00000  Uiso   1.00
H530   H     0.99812   0.28547   0.70942   0.00000  Uiso   1.00
H531   H     0.99968   0.37949   0.58553   0.00000  Uiso   1.00
H532   H     0.92995   0.43644   0.38909   0.00000  Uiso   1.00
H533   H     0.87739   0.49066   0.14257   0.00000  Uiso   1.00
H534   H     0.83540   0.58567   0.15407   0.00000  Uiso   1.00
H535   H     0.76005   0.47535   0.08622   0.00000  Uiso   1.00
H536   H     0.76291   0.47293   0.33560   0.00000  Uiso   1.00
H537   H     0.83526   0.44281   0.54033   0.00000  Uiso   1.00
H538   H     0.86982   0.48647   0.64732   0.00000  Uiso   1.00
H539   H     0.87437   0.48549   0.89290   0.00000  Uiso   1.00
H540   H     0.76067   0.47062   0.58757   0.00000  Uiso   1.00
H541   H     0.76550   0.47063   0.84456   0.00000  Uiso   1.00
H542   H     0.79665   0.63380   0.26955   0.00000  Uiso   1.00
H543   H     0.97744   0.65144   0.20411   0.00000  Uiso   1.00
H544   H     0.89798   0.63270   0.40986   0.00000  Uiso   1.00
H545   H     0.96389   0.65892   0.45024   0.00000  Uiso   1.00
H546   H     0.84898   0.67939   0.01287   0.00000  Uiso   1.00
H547   H     0.77397   0.79046   0.35943   0.00000  Uiso   1.00
H548   H     0.76912   0.79411   0.10361   0.00000  Uiso   1.00
H549   H     0.79492   0.62210   0.76608   0.00000  Uiso   1.00
H550   H     0.96481   0.65686   0.70499   0.00000  Uiso   1.00
H551   H     0.96255   0.65372   0.95422   0.00000  Uiso   1.00
H552   H     0.89819   0.62980   0.90656   0.00000  Uiso   1.00
H553   H     0.90249   0.63232   0.65493   0.00000  Uiso   1.00
H554   H     0.79316   0.63257   0.52109   0.00000  Uiso   1.00
H555   H     0.91756   0.79827   0.87788   0.00000  Uiso   1.00
H556   H     0.96293   0.94690   0.21200   0.00000  Uiso   1.00
H557   H     0.96051   0.94658   0.46135   0.00000  Uiso   1.00
H558   H     0.79276   0.91433   0.26336   0.00000  Uiso   1.00
H559   H     0.92129   0.80981   0.37659   0.00000  Uiso   1.00
H560   H     0.88060   0.82029   0.05713   0.00000  Uiso   1.00
H561   H     0.79783   0.90898   0.01475   0.00000  Uiso   1.00
H562   H     0.85445   0.98211   0.41480   0.00000  Uiso   1.00
H563   H     0.85152   0.98557   0.15947   0.00000  Uiso   1.00
H564   H     0.87512   0.82030   0.30583   0.00000  Uiso   1.00
H565   H     0.91921   0.80951   0.12249   0.00000  Uiso   1.00
H566   H     0.97109   0.94451   0.71071   0.00000  Uiso   1.00
H567   H     0.85486   0.97926   0.66825   0.00000  Uiso   1.00
H568   H     0.96746   0.94290   0.96216   0.00000  Uiso   1.00
H569   H     0.80183   0.90256   0.76600   0.00000  Uiso   1.00
H570   H     0.85163   0.98826   0.90689   0.00000  Uiso   1.00
H571   H     0.92405   0.80577   0.63240   0.00000  Uiso   1.00
H572   H     0.80421   0.90964   0.51797   0.00000  Uiso   1.00
H573   H     0.87577   0.80870   0.80821   0.00000  Uiso   1.00
H574   H     0.87834   0.81560   0.55684   0.00000  Uiso   1.00
H575   H     0.77947   0.80122   0.60620   0.00000  Uiso   1.00
H576   H     0.78438   0.80289   0.85674   0.00000  Uiso   1.00
C577   C     0.05176   0.01593   0.45903   0.00000  Uiso   1.00
C578   C     0.13673   0.07583   0.00547   0.00000  Uiso   1.00
C579   C     0.09625   0.06029   0.25483   0.00000  Uiso   1.00
C580   C     0.13284   0.07829   0.25770   0.00000  Uiso   1.00
C581   C     0.05174   0.01122   0.21321   0.00000  Uiso   1.00
C582   C     0.09077   0.03156   0.21589   0.00000  Uiso   1.00
C583   C     0.19569   0.10213   0.21791   0.00000  Uiso   1.00
C584   C     0.16181   0.07417   0.21860   0.00000  Uiso   1.00
C585   C     0.11807   0.02851   0.17305   0.00000  Uiso   1.00
C586   C     0.15388   0.04936   0.17645   0.00000  Uiso   1.00
C587   C     0.12381   0.02760   0.42469   0.00000  Uiso   1.00
C588   C     0.16249   0.04562   0.43004   0.00000  Uiso   1.00
C589   C     0.09220   0.03226   0.46363   0.00000  Uiso   1.00
C590   C     0.20138   0.09763   0.46981   0.00000  Uiso   1.00
C591   C     0.16786   0.06975   0.47318   0.00000  Uiso   1.00
C592   C     0.17997   0.18895   0.08593   0.00000  Uiso   1.00
C593   C     0.18231   0.19174   0.34521   0.00000  Uiso   1.00
C594   C     0.09899   0.05976   0.00614   0.00000  Uiso   1.00
C595   C     0.05539   0.01237   0.71755   0.00000  Uiso   1.00
C596   C     0.18411   0.19450   0.84346   0.00000  Uiso   1.00
C597   C     0.12024   0.02549   0.93053   0.00000  Uiso   1.00
C598   C     0.15819   0.04466   0.92810   0.00000  Uiso   1.00
C599   C     0.13775   0.07265   0.51254   0.00000  Uiso   1.00
C600   C     0.12896   0.02325   0.68869   0.00000  Uiso   1.00
C601   C     0.16419   0.04403   0.68977   0.00000  Uiso   1.00
C602   C     0.10153   0.05291   0.50823   0.00000  Uiso   1.00
C603   C     0.09581   0.03066   0.72184   0.00000  Uiso   1.00
C604   C     0.20269   0.09839   0.72051   0.00000  Uiso   1.00
C605   C     0.16938   0.07198   0.72556   0.00000  Uiso   1.00
C606   C     0.10099   0.05748   0.75981   0.00000  Uiso   1.00
C607   C     0.13679   0.07735   0.76171   0.00000  Uiso   1.00
C608   C     0.05119   0.01271   0.96605   0.00000  Uiso   1.00
C609   C     0.09101   0.03195   0.96736   0.00000  Uiso   1.00
C610   C     0.20210   0.09673   0.96521   0.00000  Uiso   1.00
C611   C     0.16580   0.07070   0.96711   0.00000  Uiso   1.00
C612   C     0.18007   0.18927   0.59251   0.00000  Uiso   1.00
C613   C     0.13701   0.23528   0.29975   0.00000  Uiso   1.00
C614   C     0.11550   0.20278   0.12790   0.00000  Uiso   1.00
C615   C     0.14203   0.20924   0.08452   0.00000  Uiso   1.00
C616   C     0.09375   0.38533   0.21640   0.00000  Uiso   1.00
C617   C     0.10052   0.25271   0.29570   0.00000  Uiso   1.00
C618   C     0.14415   0.21134   0.34224   0.00000  Uiso   1.00
C619   C     0.09797   0.25577   0.04753   0.00000  Uiso   1.00
C620   C     0.03287   0.26933   0.08615   0.00000  Uiso   1.00
C621   C     0.06795   0.24569   0.08436   0.00000  Uiso   1.00
C622   C     0.11538   0.20803   0.38248   0.00000  Uiso   1.00
C623   C     0.07612   0.21837   0.12393   0.00000  Uiso   1.00
C624   C     0.05689   0.36247   0.21286   0.00000  Uiso   1.00
C625   C     0.05741   0.36432   0.45733   0.00000  Uiso   1.00
C626   C     0.08103   0.22962   0.37949   0.00000  Uiso   1.00
C627   C     0.13387   0.23501   0.04503   0.00000  Uiso   1.00
C628   C     0.03796   0.27786   0.33669   0.00000  Uiso   1.00
C629   C     0.07266   0.25355   0.33842   0.00000  Uiso   1.00
C630   C     0.12309   0.38469   0.17700   0.00000  Uiso   1.00
C631   C     0.09308   0.38604   0.45862   0.00000  Uiso   1.00
C632   C     0.12205   0.38700   0.41826   0.00000  Uiso   1.00
C633   C     0.10087   0.37811   0.96560   0.00000  Uiso   1.00
C634   C     0.11965   0.21084   0.88465   0.00000  Uiso   1.00
C635   C     0.13609   0.23682   0.79613   0.00000  Uiso   1.00
C636   C     0.12881   0.38001   0.92480   0.00000  Uiso   1.00
C637   C     0.14389   0.21121   0.59060   0.00000  Uiso   1.00
C638   C     0.14602   0.21375   0.84274   0.00000  Uiso   1.00
C639   C     0.10423   0.25949   0.54879   0.00000  Uiso   1.00
C640   C     0.03940   0.27735   0.58521   0.00000  Uiso   1.00
C641   C     0.07166   0.25039   0.58358   0.00000  Uiso   1.00
C642   C     0.12137   0.39115   0.66663   0.00000  Uiso   1.00
C643   C     0.07675   0.22353   0.62342   0.00000  Uiso   1.00
C644   C     0.05714   0.37190   0.70693   0.00000  Uiso   1.00
C645   C     0.10032   0.25558   0.79820   0.00000  Uiso   1.00
C646   C     0.14212   0.24132   0.55496   0.00000  Uiso   1.00
C647   C     0.03783   0.27719   0.83746   0.00000  Uiso   1.00
C648   C     0.07339   0.25115   0.83974   0.00000  Uiso   1.00
C649   C     0.08206   0.22708   0.88169   0.00000  Uiso   1.00
C650   C     0.06147   0.35820   0.96383   0.00000  Uiso   1.00
C651   C     0.11395   0.20558   0.62782   0.00000  Uiso   1.00
C652   C     0.09234   0.39647   0.70654   0.00000  Uiso   1.00
C653   C     0.05438   0.57671   0.10150   0.00000  Uiso   1.00
C654   C     0.12813   0.43616   0.25507   0.00000  Uiso   1.00
C655   C     0.06432   0.58786   0.29604   0.00000  Uiso   1.00
C656   C     0.15172   0.41143   0.17443   0.00000  Uiso   1.00
C657   C     0.16499   0.55604   0.08718   0.00000  Uiso   1.00
C658   C     0.12616   0.57335   0.08499   0.00000  Uiso   1.00
C659   C     0.09792   0.40959   0.25884   0.00000  Uiso   1.00
C660   C     0.09116   0.55712   0.10819   0.00000  Uiso   1.00
C661   C     0.18571   0.46827   0.21164   0.00000  Uiso   1.00
C662   C     0.15413   0.43765   0.21441   0.00000  Uiso   1.00
C663   C     0.15457   0.41052   0.42174   0.00000  Uiso   1.00
C664   C     0.16888   0.56119   0.33548   0.00000  Uiso   1.00
C665   C     0.13112   0.58101   0.33450   0.00000  Uiso   1.00
C666   C     0.13320   0.42951   0.00914   0.00000  Uiso   1.00
C667   C     0.18951   0.46604   0.45997   0.00000  Uiso   1.00
C668   C     0.15899   0.43603   0.46361   0.00000  Uiso   1.00
C669   C     0.10193   0.56917   0.29816   0.00000  Uiso   1.00
C670   C     0.10646   0.40124   0.01128   0.00000  Uiso   1.00
C671   C     0.12804   0.44775   0.74345   0.00000  Uiso   1.00
C672   C     0.15518   0.41268   0.67072   0.00000  Uiso   1.00
C673   C     0.09678   0.42506   0.74460   0.00000  Uiso   1.00
C674   C     0.16687   0.55634   0.58563   0.00000  Uiso   1.00
C675   C     0.12662   0.57463   0.58661   0.00000  Uiso   1.00
C676   C     0.09706   0.56427   0.78375   0.00000  Uiso   1.00
C677   C     0.09610   0.56228   0.55145   0.00000  Uiso   1.00
C678   C     0.05942   0.58030   0.54983   0.00000  Uiso   1.00
C679   C     0.19083   0.46775   0.70720   0.00000  Uiso   1.00
C680   C     0.15747   0.44216   0.70600   0.00000  Uiso   1.00
C681   C     0.16218   0.55101   0.83235   0.00000  Uiso   1.00
C682   C     0.12058   0.56249   0.83078   0.00000  Uiso   1.00
C683   C     0.09964   0.40803   0.50230   0.00000  Uiso   1.00
C684   C     0.10107   0.57296   0.87775   0.00000  Uiso   1.00
C685   C     0.05921   0.58223   0.78420   0.00000  Uiso   1.00
C686   C     0.18917   0.46394   0.96229   0.00000  Uiso   1.00
C687   C     0.16003   0.43358   0.96583   0.00000  Uiso   1.00
C688   C     0.15897   0.40616   0.92696   0.00000  Uiso   1.00
C689   C     0.06527   0.59154   0.87851   0.00000  Uiso   1.00
C690   C     0.13153   0.43355   0.50623   0.00000  Uiso   1.00
C691   C     0.05177   0.61178   0.07641   0.00000  Uiso   1.00
C692   C     0.12382   0.60818   0.06275   0.00000  Uiso   1.00
C693   C     0.11640   0.72755   0.00412   0.00000  Uiso   1.00
C694   C     0.08732   0.62724   0.05929   0.00000  Uiso   1.00
C695   C     0.01697   0.63587   0.07711   0.00000  Uiso   1.00
C696   C     0.12818   0.72341   0.41590   0.00000  Uiso   1.00
C697   C     0.11783   0.74906   0.25546   0.00000  Uiso   1.00
C698   C     0.15806   0.75750   0.25928   0.00000  Uiso   1.00
C699   C     0.05983   0.71845   0.20637   0.00000  Uiso   1.00
C700   C     0.10257   0.72852   0.21193   0.00000  Uiso   1.00
C701   C     0.21609   0.77671   0.20952   0.00000  Uiso   1.00
C702   C     0.18366   0.74871   0.21669   0.00000  Uiso   1.00
C703   C     0.02063   0.63991   0.32938   0.00000  Uiso   1.00
C704   C     0.13062   0.71466   0.17301   0.00000  Uiso   1.00
C705   C     0.17047   0.72440   0.17759   0.00000  Uiso   1.00
C706   C     0.05895   0.72330   0.45130   0.00000  Uiso   1.00
C707   C     0.10163   0.73463   0.45589   0.00000  Uiso   1.00
C708   C     0.21678   0.77818   0.46039   0.00000  Uiso   1.00
C709   C     0.18374   0.75170   0.46388   0.00000  Uiso   1.00
C710   C     0.17034   0.73170   0.41994   0.00000  Uiso   1.00
C711   C     0.08291   0.62569   0.37211   0.00000  Uiso   1.00
C712   C     0.15182   0.74853   0.00509   0.00000  Uiso   1.00
C713   C     0.05445   0.61467   0.33404   0.00000  Uiso   1.00
C714   C     0.12245   0.60979   0.37045   0.00000  Uiso   1.00
C715   C     0.11899   0.60602   0.61751   0.00000  Uiso   1.00
C716   C     0.05150   0.60995   0.58561   0.00000  Uiso   1.00
C717   C     0.17900   0.74762   0.96283   0.00000  Uiso   1.00
C718   C     0.01570   0.63142   0.82753   0.00000  Uiso   1.00
C719   C     0.02067   0.63837   0.57658   0.00000  Uiso   1.00
C720   C     0.11653   0.75170   0.75067   0.00000  Uiso   1.00
C721   C     0.15633   0.75961   0.75547   0.00000  Uiso   1.00
C722   C     0.06068   0.72060   0.70398   0.00000  Uiso   1.00
C723   C     0.10219   0.73005   0.70780   0.00000  Uiso   1.00
C724   C     0.21697   0.77843   0.70781   0.00000  Uiso   1.00
C725   C     0.18297   0.75182   0.71370   0.00000  Uiso   1.00
C726   C     0.12934   0.72002   0.66682   0.00000  Uiso   1.00
C727   C     0.17024   0.73190   0.67040   0.00000  Uiso   1.00
C728   C     0.12967   0.70916   0.91591   0.00000  Uiso   1.00
C729   C     0.16764   0.72808   0.91860   0.00000  Uiso   1.00
C730   C     0.05946   0.70648   0.95285   0.00000  Uiso   1.00
C731   C     0.10163   0.71425   0.95604   0.00000  Uiso   1.00
C732   C     0.21212   0.77572   0.96038   0.00000  Uiso   1.00
C733   C     0.08137   0.62086   0.62278   0.00000  Uiso   1.00
C734   C     0.15772   0.75887   0.50538   0.00000  Uiso   1.00
C735   C     0.11709   0.75221   0.50139   0.00000  Uiso   1.00
C736   C     0.04456   0.60022   0.83122   0.00000  Uiso   1.00
C737   C     0.10095   0.87688   0.03566   0.00000  Uiso   1.00
C738   C     0.05988   0.88756   0.03692   0.00000  Uiso   1.00
C739   C     0.16442   0.85830   0.08473   0.00000  Uiso   1.00
C740   C     0.12028   0.86716   0.08289   0.00000  Uiso   1.00
C741   C     0.01449   0.92789   0.08954   0.00000  Uiso   1.00
C742   C     0.04269   0.89537   0.08479   0.00000  Uiso   1.00
C743   C     0.09636   0.86080   0.12685   0.00000  Uiso   1.00
C744   C     0.05768   0.87702   0.12926   0.00000  Uiso   1.00
C745   C     0.11279   0.89220   0.29116   0.00000  Uiso   1.00
C746   C     0.07513   0.90991   0.29556   0.00000  Uiso   1.00
C747   C     0.16733   0.85576   0.33194   0.00000  Uiso   1.00
C748   C     0.12580   0.86781   0.33057   0.00000  Uiso   1.00
C749   C     0.01304   0.92727   0.34051   0.00000  Uiso   1.00
C750   C     0.04841   0.90132   0.33760   0.00000  Uiso   1.00
C751   C     0.09984   0.85793   0.37252   0.00000  Uiso   1.00
C752   C     0.06093   0.87518   0.37630   0.00000  Uiso   1.00
C753   C     0.11288   0.89066   0.54044   0.00000  Uiso   1.00
C754   C     0.07437   0.90488   0.54043   0.00000  Uiso   1.00
C755   C     0.16811   0.85452   0.58350   0.00000  Uiso   1.00
C756   C     0.12574   0.86690   0.58044   0.00000  Uiso   1.00
C757   C     0.01389   0.92695   0.58704   0.00000  Uiso   1.00
C758   C     0.04794   0.90101   0.58277   0.00000  Uiso   1.00
C759   C     0.10066   0.85999   0.62337   0.00000  Uiso   1.00
C760   C     0.06260   0.87772   0.62594   0.00000  Uiso   1.00
C761   C     0.10975   0.89128   0.79021   0.00000  Uiso   1.00
C762   C     0.07168   0.90199   0.78928   0.00000  Uiso   1.00
C763   C     0.16390   0.85531   0.83246   0.00000  Uiso   1.00
C764   C     0.12250   0.86601   0.82965   0.00000  Uiso   1.00
C765   C     0.01438   0.92584   0.83872   0.00000  Uiso   1.00
C766   C     0.04525   0.89556   0.83004   0.00000  Uiso   1.00
C767   C     0.09586   0.85482   0.86950   0.00000  Uiso   1.00
C768   C     0.05534   0.86694   0.86956   0.00000  Uiso   1.00
C769   C     0.41326   0.09822   0.25858   0.00000  Uiso   1.00
C770   C     0.37294   0.10814   0.26003   0.00000  Uiso   1.00
C771   C     0.36041   0.08086   0.17502   0.00000  Uiso   1.00
C772   C     0.40087   0.06685   0.17460   0.00000  Uiso   1.00
C773   C     0.30689   0.11990   0.21671   0.00000  Uiso   1.00
C774   C     0.34700   0.10142   0.21653   0.00000  Uiso   1.00
C775   C     0.46096   0.04829   0.21985   0.00000  Uiso   1.00
C776   C     0.42695   0.07441   0.21770   0.00000  Uiso   1.00
C777   C     0.39825   0.06537   0.42333   0.00000  Uiso   1.00
C778   C     0.36072   0.08159   0.42422   0.00000  Uiso   1.00
C779   C     0.30963   0.12234   0.46952   0.00000  Uiso   1.00
C780   C     0.34827   0.10188   0.46978   0.00000  Uiso   1.00
C781   C     0.45822   0.04152   0.46874   0.00000  Uiso   1.00
C782   C     0.42341   0.06783   0.46763   0.00000  Uiso   1.00
C783   C     0.42088   0.09808   0.00253   0.00000  Uiso   1.00
C784   C     0.38219   0.11608   0.00439   0.00000  Uiso   1.00
C785   C     0.38243   0.11207   0.75376   0.00000  Uiso   1.00
C786   C     0.42268   0.09787   0.74790   0.00000  Uiso   1.00
C787   C     0.36523   0.07782   0.67658   0.00000  Uiso   1.00
C788   C     0.40490   0.06637   0.66819   0.00000  Uiso   1.00
C789   C     0.31167   0.11800   0.72060   0.00000  Uiso   1.00
C790   C     0.35314   0.10232   0.71757   0.00000  Uiso   1.00
C791   C     0.46544   0.04600   0.71264   0.00000  Uiso   1.00
C792   C     0.43262   0.07330   0.70741   0.00000  Uiso   1.00
C793   C     0.36051   0.07909   0.92978   0.00000  Uiso   1.00
C794   C     0.39993   0.06533   0.92368   0.00000  Uiso   1.00
C795   C     0.31094   0.12218   0.96911   0.00000  Uiso   1.00
C796   C     0.35166   0.10366   0.96880   0.00000  Uiso   1.00
C797   C     0.46364   0.04787   0.96506   0.00000  Uiso   1.00
C798   C     0.42974   0.07328   0.96261   0.00000  Uiso   1.00
C799   C     0.41354   0.09076   0.50746   0.00000  Uiso   1.00
C800   C     0.37624   0.10698   0.50966   0.00000  Uiso   1.00
C801   C     0.38344   0.25765   0.12803   0.00000  Uiso   1.00
C802   C     0.35337   0.23321   0.12721   0.00000  Uiso   1.00
C803   C     0.34840   0.29594   0.06372   0.00000  Uiso   1.00
C804   C     0.31739   0.27000   0.06248   0.00000  Uiso   1.00
C805   C     0.42124   0.31227   0.09367   0.00000  Uiso   1.00
C806   C     0.38299   0.28923   0.09588   0.00000  Uiso   1.00
C807   C     0.28645   0.21146   0.09371   0.00000  Uiso   1.00
C808   C     0.31976   0.23796   0.09309   0.00000  Uiso   1.00
C809   C     0.36180   0.28712   0.37538   0.00000  Uiso   1.00
C810   C     0.32972   0.26270   0.37481   0.00000  Uiso   1.00
C811   C     0.39644   0.24876   0.31175   0.00000  Uiso   1.00
C812   C     0.36301   0.22444   0.30956   0.00000  Uiso   1.00
C813   C     0.42693   0.30891   0.34352   0.00000  Uiso   1.00
C814   C     0.39342   0.28276   0.34259   0.00000  Uiso   1.00
C815   C     0.32889   0.23003   0.34357   0.00000  Uiso   1.00
C816   C     0.29554   0.20502   0.34121   0.00000  Uiso   1.00
C817   C     0.44165   0.39989   0.21969   0.00000  Uiso   1.00
C818   C     0.28285   0.21357   0.59365   0.00000  Uiso   1.00
C819   C     0.35344   0.29551   0.62019   0.00000  Uiso   1.00
C820   C     0.31965   0.27143   0.62386   0.00000  Uiso   1.00
C821   C     0.37955   0.25939   0.55054   0.00000  Uiso   1.00
C822   C     0.34629   0.23512   0.55166   0.00000  Uiso   1.00
C823   C     0.42080   0.31134   0.58975   0.00000  Uiso   1.00
C824   C     0.38342   0.29067   0.58322   0.00000  Uiso   1.00
C825   C     0.31639   0.24020   0.58995   0.00000  Uiso   1.00
C826   C     0.38878   0.25888   0.88195   0.00000  Uiso   1.00
C827   C     0.35518   0.23639   0.88770   0.00000  Uiso   1.00
C828   C     0.35751   0.29066   0.80932   0.00000  Uiso   1.00
C829   C     0.32423   0.26676   0.81346   0.00000  Uiso   1.00
C830   C     0.42437   0.30803   0.84415   0.00000  Uiso   1.00
C831   C     0.39023   0.28638   0.84415   0.00000  Uiso   1.00
C832   C     0.29228   0.20844   0.84797   0.00000  Uiso   1.00
C833   C     0.32287   0.23906   0.85169   0.00000  Uiso   1.00
C834   C     0.36259   0.47335   0.25098   0.00000  Uiso   1.00
C835   C     0.34324   0.43860   0.42924   0.00000  Uiso   1.00
C836   C     0.40857   0.42758   0.46843   0.00000  Uiso   1.00
C837   C     0.34519   0.44143   0.16997   0.00000  Uiso   1.00
C838   C     0.37965   0.41903   0.17701   0.00000  Uiso   1.00
C839   C     0.27939   0.57841   0.33901   0.00000  Uiso   1.00
C840   C     0.29730   0.48857   0.20977   0.00000  Uiso   1.00
C841   C     0.33490   0.46649   0.21064   0.00000  Uiso   1.00
C842   C     0.40703   0.42493   0.21784   0.00000  Uiso   1.00
C843   C     0.39815   0.45192   0.25665   0.00000  Uiso   1.00
C844   C     0.27077   0.58128   0.08683   0.00000  Uiso   1.00
C845   C     0.37936   0.41914   0.43016   0.00000  Uiso   1.00
C846   C     0.29736   0.48910   0.46508   0.00000  Uiso   1.00
C847   C     0.33388   0.46627   0.46818   0.00000  Uiso   1.00
C848   C     0.39813   0.45335   0.00354   0.00000  Uiso   1.00
C849   C     0.44364   0.40238   0.46871   0.00000  Uiso   1.00
C850   C     0.36300   0.47538   0.00016   0.00000  Uiso   1.00
C851   C     0.34447   0.59784   0.30025   0.00000  Uiso   1.00
C852   C     0.27141   0.58446   0.83727   0.00000  Uiso   1.00
C853   C     0.39624   0.44925   0.75699   0.00000  Uiso   1.00
C854   C     0.36274   0.47206   0.75523   0.00000  Uiso   1.00
C855   C     0.34868   0.45075   0.66787   0.00000  Uiso   1.00
C856   C     0.38389   0.42983   0.66856   0.00000  Uiso   1.00
C857   C     0.34234   0.44021   0.92354   0.00000  Uiso   1.00
C858   C     0.29951   0.49404   0.71163   0.00000  Uiso   1.00
C859   C     0.33740   0.47126   0.71106   0.00000  Uiso   1.00
C860   C     0.40799   0.42872   0.71370   0.00000  Uiso   1.00
C861   C     0.37801   0.42068   0.92710   0.00000  Uiso   1.00
C862   C     0.27698   0.58187   0.58507   0.00000  Uiso   1.00
C863   C     0.44257   0.40262   0.96723   0.00000  Uiso   1.00
C864   C     0.29659   0.49142   0.96063   0.00000  Uiso   1.00
C865   C     0.33499   0.46984   0.96060   0.00000  Uiso   1.00
C866   C     0.40583   0.42669   0.96645   0.00000  Uiso   1.00
C867   C     0.34494   0.59456   0.54996   0.00000  Uiso   1.00
C868   C     0.36347   0.47453   0.50593   0.00000  Uiso   1.00
C869   C     0.39916   0.45418   0.50687   0.00000  Uiso   1.00
C870   C     0.44127   0.40236   0.71607   0.00000  Uiso   1.00
C871   C     0.45816   0.74509   0.47221   0.00000  Uiso   1.00
C872   C     0.40071   0.77800   0.26576   0.00000  Uiso   1.00
C873   C     0.37082   0.62235   0.04796   0.00000  Uiso   1.00
C874   C     0.42838   0.77383   0.47607   0.00000  Uiso   1.00
C875   C     0.35079   0.65151   0.13030   0.00000  Uiso   1.00
C876   C     0.42044   0.66453   0.09261   0.00000  Uiso   1.00
C877   C     0.38042   0.64551   0.09104   0.00000  Uiso   1.00
C878   C     0.31289   0.60394   0.33650   0.00000  Uiso   1.00
C879   C     0.31486   0.63073   0.12974   0.00000  Uiso   1.00
C880   C     0.45699   0.74646   0.21741   0.00000  Uiso   1.00
C881   C     0.42463   0.77430   0.21980   0.00000  Uiso   1.00
C882   C     0.35407   0.65126   0.37946   0.00000  Uiso   1.00
C883   C     0.42342   0.66337   0.34421   0.00000  Uiso   1.00
C884   C     0.38456   0.64421   0.34289   0.00000  Uiso   1.00
C885   C     0.37824   0.62063   0.30078   0.00000  Uiso   1.00
C886   C     0.31588   0.63243   0.37322   0.00000  Uiso   1.00
C887   C     0.30405   0.60869   0.08591   0.00000  Uiso   1.00
C888   C     0.33115   0.60579   0.04262   0.00000  Uiso   1.00
C889   C     0.41615   0.79544   0.17340   0.00000  Uiso   1.00
C890   C     0.42255   0.79870   0.43304   0.00000  Uiso   1.00
C891   C     0.37275   0.62459   0.80040   0.00000  Uiso   1.00
C892   C     0.31474   0.63747   0.87637   0.00000  Uiso   1.00
C893   C     0.35466   0.77162   0.93483   0.00000  Uiso   1.00
C894   C     0.30458   0.61285   0.83698   0.00000  Uiso   1.00
C895   C     0.35800   0.65093   0.62468   0.00000  Uiso   1.00
C896   C     0.42548   0.66024   0.59033   0.00000  Uiso   1.00
C897   C     0.38723   0.64270   0.58607   0.00000  Uiso   1.00
C898   C     0.32251   0.63210   0.62395   0.00000  Uiso   1.00
C899   C     0.46135   0.74827   0.71686   0.00000  Uiso   1.00
C900   C     0.43113   0.77924   0.72029   0.00000  Uiso   1.00
C901   C     0.39139   0.75445   0.93737   0.00000  Uiso   1.00
C902   C     0.40988   0.78492   0.76651   0.00000  Uiso   1.00
C903   C     0.35251   0.65630   0.87836   0.00000  Uiso   1.00
C904   C     0.42017   0.66603   0.84146   0.00000  Uiso   1.00
C905   C     0.38043   0.64960   0.83932   0.00000  Uiso   1.00
C906   C     0.39914   0.77353   0.51467   0.00000  Uiso   1.00
C907   C     0.38225   0.61316   0.55087   0.00000  Uiso   1.00
C908   C     0.46163   0.74835   0.96747   0.00000  Uiso   1.00
C909   C     0.42469   0.77167   0.96301   0.00000  Uiso   1.00
C910   C     0.31526   0.60389   0.58591   0.00000  Uiso   1.00
C911   C     0.33440   0.60784   0.80010   0.00000  Uiso   1.00
C912   C     0.42017   0.79862   0.67409   0.00000  Uiso   1.00
C913   C     0.36455   0.79458   0.50903   0.00000  Uiso   1.00
C914   C     0.35559   0.96422   0.04361   0.00000  Uiso   1.00
C915   C     0.31605   0.95068   0.04084   0.00000  Uiso   1.00
C916   C     0.35073   0.96785   0.13682   0.00000  Uiso   1.00
C917   C     0.30960   0.95321   0.13245   0.00000  Uiso   1.00
C918   C     0.41840   0.97080   0.09214   0.00000  Uiso   1.00
C919   C     0.37396   0.96884   0.09137   0.00000  Uiso   1.00
C920   C     0.26743   0.90605   0.08448   0.00000  Uiso   1.00
C921   C     0.29477   0.93899   0.08583   0.00000  Uiso   1.00
C922   C     0.34954   0.96787   0.37231   0.00000  Uiso   1.00
C923   C     0.30872   0.96059   0.36513   0.00000  Uiso   1.00
C924   C     0.36504   0.93235   0.29464   0.00000  Uiso   1.00
C925   C     0.32413   0.92841   0.28473   0.00000  Uiso   1.00
C926   C     0.42039   0.95867   0.34301   0.00000  Uiso   1.00
C927   C     0.37752   0.95230   0.33847   0.00000  Uiso   1.00
C928   C     0.26492   0.90923   0.33209   0.00000  Uiso   1.00
C929   C     0.29648   0.93675   0.32354   0.00000  Uiso   1.00
C930   C     0.35562   0.81605   0.46303   0.00000  Uiso   1.00
C931   C     0.38667   0.81940   0.42627   0.00000  Uiso   1.00
C932   C     0.31531   0.83062   0.45843   0.00000  Uiso   1.00
C933   C     0.35456   0.81586   0.21488   0.00000  Uiso   1.00
C934   C     0.31299   0.82967   0.20895   0.00000  Uiso   1.00
C935   C     0.38046   0.81564   0.17115   0.00000  Uiso   1.00
C936   C     0.36658   0.80027   0.26290   0.00000  Uiso   1.00
C937   C     0.35807   0.81873   0.71878   0.00000  Uiso   1.00
C938   C     0.31550   0.83157   0.71483   0.00000  Uiso   1.00
C939   C     0.35406   0.96076   0.63165   0.00000  Uiso   1.00
C940   C     0.31399   0.95222   0.62879   0.00000  Uiso   1.00
C941   C     0.36260   0.93580   0.54422   0.00000  Uiso   1.00
C942   C     0.32140   0.93192   0.53881   0.00000  Uiso   1.00
C943   C     0.42400   0.95882   0.59095   0.00000  Uiso   1.00
C944   C     0.38080   0.95173   0.58922   0.00000  Uiso   1.00
C945   C     0.26433   0.90904   0.58649   0.00000  Uiso   1.00
C946   C     0.29794   0.93431   0.58370   0.00000  Uiso   1.00
C947   C     0.34857   0.97682   0.82047   0.00000  Uiso   1.00
C948   C     0.30894   0.96222   0.82058   0.00000  Uiso   1.00
C949   C     0.37276   0.91873   0.85360   0.00000  Uiso   1.00
C950   C     0.33461   0.90344   0.85236   0.00000  Uiso   1.00
C951   C     0.42087   0.96975   0.83987   0.00000  Uiso   1.00
C952   C     0.38073   0.95483   0.83776   0.00000  Uiso   1.00
C953   C     0.26509   0.90327   0.83727   0.00000  Uiso   1.00
C954   C     0.30224   0.92337   0.83323   0.00000  Uiso   1.00
C955   C     0.38423   0.82055   0.67625   0.00000  Uiso   1.00
C956   C     0.30991   0.82295   0.95954   0.00000  Uiso   1.00
C957   C     0.38137   0.82405   0.98628   0.00000  Uiso   1.00
C958   C     0.42003   0.80704   0.98805   0.00000  Uiso   1.00
C959   C     0.34952   0.80650   0.95749   0.00000  Uiso   1.00
C960   C     0.37178   0.80330   0.76365   0.00000  Uiso   1.00
C961   C     0.67095   0.19641   0.09088   0.00000  Uiso   1.00
C962   C     0.62258   0.03285   0.26377   0.00000  Uiso   1.00
C963   C     0.65365   0.05825   0.26177   0.00000  Uiso   1.00
C964   C     0.59845   0.02634   0.21950   0.00000  Uiso   1.00
C965   C     0.69409   0.10699   0.21851   0.00000  Uiso   1.00
C966   C     0.66448   0.07596   0.21531   0.00000  Uiso   1.00
C967   C     0.61338   0.03998   0.17281   0.00000  Uiso   1.00
C968   C     0.64425   0.06652   0.17033   0.00000  Uiso   1.00
C969   C     0.58937   0.06920   0.44167   0.00000  Uiso   1.00
C970   C     0.62262   0.09392   0.44621   0.00000  Uiso   1.00
C971   C     0.59324   0.03385   0.46408   0.00000  Uiso   1.00
C972   C     0.69186   0.10840   0.47023   0.00000  Uiso   1.00
C973   C     0.65937   0.08287   0.46868   0.00000  Uiso   1.00
C974   C     0.66226   0.04694   0.49081   0.00000  Uiso   1.00
C975   C     0.67169   0.19903   0.34363   0.00000  Uiso   1.00
C976   C     0.56040   0.00887   0.46618   0.00000  Uiso   1.00
C977   C     0.62852   0.02246   0.48850   0.00000  Uiso   1.00
C978   C     0.56092   0.00507   0.21832   0.00000  Uiso   1.00
C979   C     0.56690   0.00475   0.96313   0.00000  Uiso   1.00
C980   C     0.60559   0.05880   0.93083   0.00000  Uiso   1.00
C981   C     0.62381   0.03348   0.66503   0.00000  Uiso   1.00
C982   C     0.65391   0.05956   0.66821   0.00000  Uiso   1.00
C983   C     0.60571   0.01830   0.71028   0.00000  Uiso   1.00
C984   C     0.69856   0.10280   0.71930   0.00000  Uiso   1.00
C985   C     0.67192   0.06847   0.71774   0.00000  Uiso   1.00
C986   C     0.62434   0.02431   0.75894   0.00000  Uiso   1.00
C987   C     0.65837   0.04693   0.76204   0.00000  Uiso   1.00
C988   C     0.66807   0.19556   0.59635   0.00000  Uiso   1.00
C989   C     0.63622   0.08361   0.93521   0.00000  Uiso   1.00
C990   C     0.60499   0.02609   0.95990   0.00000  Uiso   1.00
C991   C     0.69651   0.10547   0.96995   0.00000  Uiso   1.00
C992   C     0.67031   0.07548   0.96753   0.00000  Uiso   1.00
C993   C     0.67171   0.04161   0.99774   0.00000  Uiso   1.00
C994   C     0.66727   0.19411   0.84092   0.00000  Uiso   1.00
C995   C     0.63771   0.01730   0.99452   0.00000  Uiso   1.00
C996   C     0.63504   0.25071   0.37797   0.00000  Uiso   1.00
C997   C     0.63668   0.22097   0.34380   0.00000  Uiso   1.00
C998   C     0.62892   0.24714   0.12871   0.00000  Uiso   1.00
C999   C     0.59253   0.26501   0.12780   0.00000  Uiso   1.00
C1000  C     0.63391   0.21978   0.09172   0.00000  Uiso   1.00
C1001  C     0.53030   0.28927   0.09071   0.00000  Uiso   1.00
C1002  C     0.56248   0.26038   0.09005   0.00000  Uiso   1.00
C1003  C     0.57016   0.23422   0.04973   0.00000  Uiso   1.00
C1004  C     0.54973   0.38588   0.21651   0.00000  Uiso   1.00
C1005  C     0.60756   0.21827   0.30142   0.00000  Uiso   1.00
C1006  C     0.57463   0.24268   0.30111   0.00000  Uiso   1.00
C1007  C     0.60469   0.21222   0.05229   0.00000  Uiso   1.00
C1008  C     0.53737   0.29447   0.34281   0.00000  Uiso   1.00
C1009  C     0.57109   0.26899   0.34242   0.00000  Uiso   1.00
C1010  C     0.60133   0.27248   0.38169   0.00000  Uiso   1.00
C1011  C     0.55213   0.38526   0.47124   0.00000  Uiso   1.00
C1012  C     0.62097   0.38900   0.00495   0.00000  Uiso   1.00
C1013  C     0.61895   0.39577   0.25319   0.00000  Uiso   1.00
C1014  C     0.62896   0.21603   0.59819   0.00000  Uiso   1.00
C1015  C     0.61949   0.39722   0.50940   0.00000  Uiso   1.00
C1016  C     0.61877   0.23519   0.64293   0.00000  Uiso   1.00
C1017  C     0.58462   0.25824   0.64166   0.00000  Uiso   1.00
C1018  C     0.60170   0.21312   0.55476   0.00000  Uiso   1.00
C1019  C     0.52781   0.28789   0.59159   0.00000  Uiso   1.00
C1020  C     0.55806   0.25817   0.59479   0.00000  Uiso   1.00
C1021  C     0.59941   0.21166   0.80284   0.00000  Uiso   1.00
C1022  C     0.56634   0.23523   0.55193   0.00000  Uiso   1.00
C1023  C     0.55002   0.38361   0.71917   0.00000  Uiso   1.00
C1024  C     0.56509   0.23422   0.80699   0.00000  Uiso   1.00
C1025  C     0.62926   0.21377   0.84248   0.00000  Uiso   1.00
C1026  C     0.53123   0.29126   0.84113   0.00000  Uiso   1.00
C1027  C     0.56266   0.26217   0.84383   0.00000  Uiso   1.00
C1028  C     0.62520   0.24039   0.88215   0.00000  Uiso   1.00
C1029  C     0.59315   0.26626   0.88299   0.00000  Uiso   1.00
C1030  C     0.55337   0.38034   0.96959   0.00000  Uiso   1.00
C1031  C     0.61347   0.39984   0.75972   0.00000  Uiso   1.00
C1032  C     0.59270   0.39897   0.96765   0.00000  Uiso   1.00
C1033  C     0.58292   0.59790   0.29455   0.00000  Uiso   1.00
C1034  C     0.65794   0.40986   0.24865   0.00000  Uiso   1.00
C1035  C     0.64069   0.44355   0.16955   0.00000  Uiso   1.00
C1036  C     0.55827   0.59703   0.08969   0.00000  Uiso   1.00
C1037  C     0.67668   0.55116   0.08666   0.00000  Uiso   1.00
C1038  C     0.63491   0.56541   0.08312   0.00000  Uiso   1.00
C1039  C     0.60967   0.55737   0.12561   0.00000  Uiso   1.00
C1040  C     0.56935   0.57007   0.12697   0.00000  Uiso   1.00
C1041  C     0.70333   0.45978   0.21342   0.00000  Uiso   1.00
C1042  C     0.66771   0.43638   0.21110   0.00000  Uiso   1.00
C1043  C     0.65808   0.40766   0.00820   0.00000  Uiso   1.00
C1044  C     0.64057   0.43980   0.42561   0.00000  Uiso   1.00
C1045  C     0.67635   0.54605   0.33997   0.00000  Uiso   1.00
C1046  C     0.63400   0.56012   0.33645   0.00000  Uiso   1.00
C1047  C     0.60431   0.55168   0.37636   0.00000  Uiso   1.00
C1048  C     0.60137   0.42804   0.42882   0.00000  Uiso   1.00
C1049  C     0.70628   0.45717   0.46271   0.00000  Uiso   1.00
C1050  C     0.67003   0.43116   0.46193   0.00000  Uiso   1.00
C1051  C     0.60139   0.42821   0.17217   0.00000  Uiso   1.00
C1052  C     0.56771   0.56776   0.37666   0.00000  Uiso   1.00
C1053  C     0.62132   0.58128   0.29398   0.00000  Uiso   1.00
C1054  C     0.62237   0.58903   0.04278   0.00000  Uiso   1.00
C1055  C     0.59053   0.40511   0.46946   0.00000  Uiso   1.00
C1056  C     0.55694   0.59390   0.33767   0.00000  Uiso   1.00
C1057  C     0.58992   0.40536   0.21414   0.00000  Uiso   1.00
C1058  C     0.58666   0.40203   0.71686   0.00000  Uiso   1.00
C1059  C     0.60104   0.42488   0.92934   0.00000  Uiso   1.00
C1060  C     0.65110   0.41786   0.75977   0.00000  Uiso   1.00
C1061  C     0.63908   0.44032   0.92790   0.00000  Uiso   1.00
C1062  C     0.67699   0.54665   0.58895   0.00000  Uiso   1.00
C1063  C     0.63626   0.56304   0.58772   0.00000  Uiso   1.00
C1064  C     0.59797   0.42384   0.67436   0.00000  Uiso   1.00
C1065  C     0.60582   0.55224   0.62322   0.00000  Uiso   1.00
C1066  C     0.56903   0.57156   0.62768   0.00000  Uiso   1.00
C1067  C     0.69821   0.46161   0.71508   0.00000  Uiso   1.00
C1068  C     0.66112   0.43732   0.71370   0.00000  Uiso   1.00
C1069  C     0.62251   0.58326   0.79734   0.00000  Uiso   1.00
C1070  C     0.63479   0.44132   0.67227   0.00000  Uiso   1.00
C1071  C     0.67596   0.54592   0.84247   0.00000  Uiso   1.00
C1072  C     0.63485   0.56162   0.83909   0.00000  Uiso   1.00
C1073  C     0.60817   0.55610   0.87995   0.00000  Uiso   1.00
C1074  C     0.56957   0.57201   0.88079   0.00000  Uiso   1.00
C1075  C     0.70183   0.45937   0.96956   0.00000  Uiso   1.00
C1076  C     0.66402   0.43551   0.96856   0.00000  Uiso   1.00
C1077  C     0.62780   0.59134   0.55219   0.00000  Uiso   1.00
C1078  C     0.55772   0.59664   0.84095   0.00000  Uiso   1.00
C1079  C     0.56170   0.59937   0.59055   0.00000  Uiso   1.00
C1080  C     0.65969   0.40950   0.50395   0.00000  Uiso   1.00
C1081  C     0.66992   0.72977   0.02447   0.00000  Uiso   1.00
C1082  C     0.62999   0.71831   0.02279   0.00000  Uiso   1.00
C1083  C     0.60819   0.75868   0.21761   0.00000  Uiso   1.00
C1084  C     0.64724   0.77348   0.22233   0.00000  Uiso   1.00
C1085  C     0.56312   0.70616   0.22055   0.00000  Uiso   1.00
C1086  C     0.60324   0.71988   0.22142   0.00000  Uiso   1.00
C1087  C     0.72030   0.76675   0.22791   0.00000  Uiso   1.00
C1088  C     0.68055   0.75033   0.22872   0.00000  Uiso   1.00
C1089  C     0.52682   0.62376   0.34270   0.00000  Uiso   1.00
C1090  C     0.63776   0.69711   0.23060   0.00000  Uiso   1.00
C1091  C     0.67707   0.71210   0.23580   0.00000  Uiso   1.00
C1092  C     0.63912   0.70631   0.42684   0.00000  Uiso   1.00
C1093  C     0.67776   0.72120   0.43290   0.00000  Uiso   1.00
C1094  C     0.56886   0.70377   0.47160   0.00000  Uiso   1.00
C1095  C     0.61347   0.70838   0.47157   0.00000  Uiso   1.00
C1096  C     0.72311   0.76677   0.47747   0.00000  Uiso   1.00
C1097  C     0.69269   0.73647   0.47980   0.00000  Uiso   1.00
C1098  C     0.52526   0.62525   0.09601   0.00000  Uiso   1.00
C1099  C     0.58243   0.60207   0.04527   0.00000  Uiso   1.00
C1100  C     0.52936   0.62398   0.59626   0.00000  Uiso   1.00
C1101  C     0.63053   0.72104   0.52071   0.00000  Uiso   1.00
C1102  C     0.52496   0.62313   0.84458   0.00000  Uiso   1.00
C1103  C     0.61026   0.75741   0.73470   0.00000  Uiso   1.00
C1104  C     0.64878   0.77233   0.73707   0.00000  Uiso   1.00
C1105  C     0.56411   0.70493   0.72159   0.00000  Uiso   1.00
C1106  C     0.60517   0.71977   0.72239   0.00000  Uiso   1.00
C1107  C     0.72203   0.76581   0.72663   0.00000  Uiso   1.00
C1108  C     0.68331   0.74753   0.73124   0.00000  Uiso   1.00
C1109  C     0.67129   0.72960   0.52522   0.00000  Uiso   1.00
C1110  C     0.63734   0.69572   0.71607   0.00000  Uiso   1.00
C1111  C     0.67751   0.71014   0.72090   0.00000  Uiso   1.00
C1112  C     0.63385   0.71073   0.92756   0.00000  Uiso   1.00
C1113  C     0.67575   0.72007   0.93121   0.00000  Uiso   1.00
C1114  C     0.56540   0.70598   0.97206   0.00000  Uiso   1.00
C1115  C     0.61036   0.71106   0.97452   0.00000  Uiso   1.00
C1116  C     0.72390   0.76596   0.97509   0.00000  Uiso   1.00
C1117  C     0.69238   0.73440   0.97865   0.00000  Uiso   1.00
C1118  C     0.59031   0.60731   0.55140   0.00000  Uiso   1.00
C1119  C     0.58470   0.60040   0.79921   0.00000  Uiso   1.00
C1120  C     0.59860   0.84394   0.05300   0.00000  Uiso   1.00
C1121  C     0.56124   0.86488   0.05277   0.00000  Uiso   1.00
C1122  C     0.66528   0.83902   0.10041   0.00000  Uiso   1.00
C1123  C     0.62202   0.84470   0.09791   0.00000  Uiso   1.00
C1124  C     0.52417   0.91852   0.09281   0.00000  Uiso   1.00
C1125  C     0.54776   0.88307   0.09710   0.00000  Uiso   1.00
C1126  C     0.60232   0.85434   0.14562   0.00000  Uiso   1.00
C1127  C     0.56480   0.87232   0.14347   0.00000  Uiso   1.00
C1128  C     0.62905   0.88985   0.32217   0.00000  Uiso   1.00
C1129  C     0.59247   0.90563   0.31552   0.00000  Uiso   1.00
C1130  C     0.66727   0.83807   0.35361   0.00000  Uiso   1.00
C1131  C     0.62948   0.85522   0.34684   0.00000  Uiso   1.00
C1132  C     0.52429   0.91946   0.33926   0.00000  Uiso   1.00
C1133  C     0.55612   0.89157   0.33559   0.00000  Uiso   1.00
C1134  C     0.59448   0.84047   0.37118   0.00000  Uiso   1.00
C1135  C     0.55763   0.85989   0.36537   0.00000  Uiso   1.00
C1136  C     0.60105   0.84321   0.55542   0.00000  Uiso   1.00
C1137  C     0.56664   0.86652   0.55321   0.00000  Uiso   1.00
C1138  C     0.66714   0.83478   0.60307   0.00000  Uiso   1.00
C1139  C     0.62197   0.84158   0.60251   0.00000  Uiso   1.00
C1140  C     0.52439   0.91618   0.59148   0.00000  Uiso   1.00
C1141  C     0.54890   0.88194   0.59699   0.00000  Uiso   1.00
C1142  C     0.60181   0.85236   0.64950   0.00000  Uiso   1.00
C1143  C     0.56547   0.87115   0.64543   0.00000  Uiso   1.00
C1144  C     0.62858   0.89703   0.82695   0.00000  Uiso   1.00
C1145  C     0.59125   0.91294   0.81962   0.00000  Uiso   1.00
C1146  C     0.66986   0.84227   0.85271   0.00000  Uiso   1.00
C1147  C     0.63191   0.85972   0.84688   0.00000  Uiso   1.00
C1148  C     0.52093   0.91799   0.84105   0.00000  Uiso   1.00
C1149  C     0.55696   0.89577   0.84109   0.00000  Uiso   1.00
C1150  C     0.59647   0.83980   0.86295   0.00000  Uiso   1.00
C1151  C     0.55891   0.86035   0.86529   0.00000  Uiso   1.00
C1152  C     0.56645   0.99880   0.71004   0.00000  Uiso   1.00
C1153  C     0.88406   0.07024   0.42312   0.00000  Uiso   1.00
C1154  C     0.85212   0.09530   0.17103   0.00000  Uiso   1.00
C1155  C     0.89038   0.08058   0.16879   0.00000  Uiso   1.00
C1156  C     0.80171   0.13312   0.22007   0.00000  Uiso   1.00
C1157  C     0.84166   0.11693   0.21560   0.00000  Uiso   1.00
C1158  C     0.94882   0.05403   0.21251   0.00000  Uiso   1.00
C1159  C     0.91650   0.08164   0.21140   0.00000  Uiso   1.00
C1160  C     0.84652   0.08626   0.42494   0.00000  Uiso   1.00
C1161  C     0.80183   0.13252   0.46835   0.00000  Uiso   1.00
C1162  C     0.83902   0.11216   0.46561   0.00000  Uiso   1.00
C1163  C     0.94902   0.05318   0.46179   0.00000  Uiso   1.00
C1164  C     0.91339   0.07922   0.45916   0.00000  Uiso   1.00
C1165  C     0.86911   0.12274   0.25756   0.00000  Uiso   1.00
C1166  C     0.90596   0.10495   0.25529   0.00000  Uiso   1.00
C1167  C     0.90601   0.10657   0.49935   0.00000  Uiso   1.00
C1168  C     0.85788   0.09855   0.67025   0.00000  Uiso   1.00
C1169  C     0.89802   0.08782   0.66615   0.00000  Uiso   1.00
C1170  C     0.80214   0.13423   0.71396   0.00000  Uiso   1.00
C1171  C     0.84285   0.11832   0.71290   0.00000  Uiso   1.00
C1172  C     0.95265   0.05381   0.71367   0.00000  Uiso   1.00
C1173  C     0.92025   0.08299   0.71260   0.00000  Uiso   1.00
C1174  C     0.85109   0.08836   0.92073   0.00000  Uiso   1.00
C1175  C     0.88880   0.07320   0.91904   0.00000  Uiso   1.00
C1176  C     0.80280   0.13152   0.96549   0.00000  Uiso   1.00
C1177  C     0.84240   0.11334   0.96219   0.00000  Uiso   1.00
C1178  C     0.94744   0.05133   0.96328   0.00000  Uiso   1.00
C1179  C     0.91740   0.08062   0.95851   0.00000  Uiso   1.00
C1180  C     0.87023   0.12410   0.75565   0.00000  Uiso   1.00
C1181  C     0.90787   0.10556   0.75704   0.00000  Uiso   1.00
C1182  C     0.86817   0.12297   0.50103   0.00000  Uiso   1.00
C1183  C     0.87186   0.12229   0.99929   0.00000  Uiso   1.00
C1184  C     0.90829   0.10663   0.99744   0.00000  Uiso   1.00
C1185  C     0.94302   0.38279   0.46125   0.00000  Uiso   1.00
C1186  C     0.87616   0.26349   0.13385   0.00000  Uiso   1.00
C1187  C     0.84004   0.24591   0.13794   0.00000  Uiso   1.00
C1188  C     0.85777   0.28787   0.04906   0.00000  Uiso   1.00
C1189  C     0.82045   0.26952   0.05186   0.00000  Uiso   1.00
C1190  C     0.92463   0.30227   0.08382   0.00000  Uiso   1.00
C1191  C     0.88619   0.28401   0.08751   0.00000  Uiso   1.00
C1192  C     0.77979   0.21946   0.09350   0.00000  Uiso   1.00
C1193  C     0.81148   0.24821   0.09576   0.00000  Uiso   1.00
C1194  C     0.85463   0.29174   0.30181   0.00000  Uiso   1.00
C1195  C     0.81793   0.27365   0.30649   0.00000  Uiso   1.00
C1196  C     0.87893   0.25269   0.37420   0.00000  Uiso   1.00
C1197  C     0.84030   0.23678   0.37910   0.00000  Uiso   1.00
C1198  C     0.92465   0.29862   0.33476   0.00000  Uiso   1.00
C1199  C     0.88516   0.28165   0.33774   0.00000  Uiso   1.00
C1200  C     0.77606   0.22187   0.34265   0.00000  Uiso   1.00
C1201  C     0.80967   0.24810   0.34638   0.00000  Uiso   1.00
C1202  C     0.94733   0.38750   0.20900   0.00000  Uiso   1.00
C1203  C     0.95297   0.39139   0.96217   0.00000  Uiso   1.00
C1204  C     0.94922   0.38749   0.71020   0.00000  Uiso   1.00
C1205  C     0.85802   0.28735   0.55765   0.00000  Uiso   1.00
C1206  C     0.81959   0.27281   0.56229   0.00000  Uiso   1.00
C1207  C     0.87969   0.25164   0.63400   0.00000  Uiso   1.00
C1208  C     0.84114   0.23936   0.63974   0.00000  Uiso   1.00
C1209  C     0.92950   0.29594   0.58984   0.00000  Uiso   1.00
C1210  C     0.88845   0.27677   0.59347   0.00000  Uiso   1.00
C1211  C     0.77570   0.22191   0.59899   0.00000  Uiso   1.00
C1212  C     0.81081   0.24677   0.60209   0.00000  Uiso   1.00
C1213  C     0.87826   0.26202   0.87662   0.00000  Uiso   1.00
C1214  C     0.84185   0.24383   0.88363   0.00000  Uiso   1.00
C1215  C     0.85576   0.29200   0.79684   0.00000  Uiso   1.00
C1216  C     0.81775   0.27335   0.80289   0.00000  Uiso   1.00
C1217  C     0.92747   0.30158   0.83271   0.00000  Uiso   1.00
C1218  C     0.88686   0.28534   0.83344   0.00000  Uiso   1.00
C1219  C     0.77661   0.22302   0.84250   0.00000  Uiso   1.00
C1220  C     0.81081   0.24948   0.84530   0.00000  Uiso   1.00
C1221  C     0.78734   0.57558   0.33617   0.00000  Uiso   1.00
C1222  C     0.91255   0.44328   0.16771   0.00000  Uiso   1.00
C1223  C     0.87848   0.46787   0.16846   0.00000  Uiso   1.00
C1224  C     0.85200   0.43205   0.24083   0.00000  Uiso   1.00
C1225  C     0.81137   0.48703   0.20947   0.00000  Uiso   1.00
C1226  C     0.84644   0.46233   0.20617   0.00000  Uiso   1.00
C1227  C     0.91471   0.41533   0.20630   0.00000  Uiso   1.00
C1228  C     0.77997   0.58041   0.08596   0.00000  Uiso   1.00
C1229  C     0.89178   0.41597   0.00552   0.00000  Uiso   1.00
C1230  C     0.87648   0.46195   0.41991   0.00000  Uiso   1.00
C1231  C     0.90932   0.43591   0.42022   0.00000  Uiso   1.00
C1232  C     0.81424   0.48683   0.46323   0.00000  Uiso   1.00
C1233  C     0.85145   0.46449   0.46472   0.00000  Uiso   1.00
C1234  C     0.91219   0.41145   0.46260   0.00000  Uiso   1.00
C1235  C     0.85780   0.43904   0.00830   0.00000  Uiso   1.00
C1236  C     0.88457   0.41103   0.24121   0.00000  Uiso   1.00
C1237  C     0.90937   0.44208   0.67308   0.00000  Uiso   1.00
C1238  C     0.78489   0.57182   0.83911   0.00000  Uiso   1.00
C1239  C     0.91523   0.44800   0.92758   0.00000  Uiso   1.00
C1240  C     0.85302   0.43106   0.75288   0.00000  Uiso   1.00
C1241  C     0.88861   0.41037   0.75062   0.00000  Uiso   1.00
C1242  C     0.80999   0.48178   0.71372   0.00000  Uiso   1.00
C1243  C     0.84626   0.45857   0.71402   0.00000  Uiso   1.00
C1244  C     0.91610   0.41485   0.71004   0.00000  Uiso   1.00
C1245  C     0.88784   0.41584   0.50883   0.00000  Uiso   1.00
C1246  C     0.78498   0.57625   0.59108   0.00000  Uiso   1.00
C1247  C     0.87931   0.46804   0.92768   0.00000  Uiso   1.00
C1248  C     0.87462   0.46508   0.67638   0.00000  Uiso   1.00
C1249  C     0.81064   0.48496   0.96474   0.00000  Uiso   1.00
C1250  C     0.84877   0.46342   0.96667   0.00000  Uiso   1.00
C1251  C     0.92109   0.42096   0.96634   0.00000  Uiso   1.00
C1252  C     0.85774   0.44332   0.50822   0.00000  Uiso   1.00
C1253  C     0.87182   0.63106   0.12560   0.00000  Uiso   1.00
C1254  C     0.95684   0.76512   0.45447   0.00000  Uiso   1.00
C1255  C     0.83772   0.60888   0.12610   0.00000  Uiso   1.00
C1256  C     0.84366   0.60932   0.38250   0.00000  Uiso   1.00
C1257  C     0.81519   0.60756   0.34026   0.00000  Uiso   1.00
C1258  C     0.84729   0.65822   0.04332   0.00000  Uiso   1.00
C1259  C     0.91609   0.67590   0.07697   0.00000  Uiso   1.00
C1260  C     0.87827   0.65389   0.08031   0.00000  Uiso   1.00
C1261  C     0.84947   0.65708   0.29536   0.00000  Uiso   1.00
C1262  C     0.81270   0.63832   0.04683   0.00000  Uiso   1.00
C1263  C     0.95479   0.76417   0.20072   0.00000  Uiso   1.00
C1264  C     0.81782   0.63266   0.29951   0.00000  Uiso   1.00
C1265  C     0.87648   0.63147   0.37581   0.00000  Uiso   1.00
C1266  C     0.91692   0.67781   0.32753   0.00000  Uiso   1.00
C1267  C     0.88047   0.65492   0.33083   0.00000  Uiso   1.00
C1268  C     0.80776   0.61312   0.08701   0.00000  Uiso   1.00
C1269  C     0.96092   0.76276   0.95359   0.00000  Uiso   1.00
C1270  C     0.81602   0.62682   0.79760   0.00000  Uiso   1.00
C1271  C     0.87823   0.63154   0.62360   0.00000  Uiso   1.00
C1272  C     0.84803   0.65788   0.54669   0.00000  Uiso   1.00
C1273  C     0.91766   0.67812   0.57886   0.00000  Uiso   1.00
C1274  C     0.88198   0.65570   0.58241   0.00000  Uiso   1.00
C1275  C     0.81498   0.63299   0.55221   0.00000  Uiso   1.00
C1276  C     0.96136   0.76402   0.70688   0.00000  Uiso   1.00
C1277  C     0.84480   0.60387   0.87774   0.00000  Uiso   1.00
C1278  C     0.84720   0.60528   0.62859   0.00000  Uiso   1.00
C1279  C     0.87498   0.63051   0.87604   0.00000  Uiso   1.00
C1280  C     0.84726   0.65524   0.79694   0.00000  Uiso   1.00
C1281  C     0.91483   0.67881   0.82985   0.00000  Uiso   1.00
C1282  C     0.87768   0.65632   0.83427   0.00000  Uiso   1.00
C1283  C     0.93723   0.79863   0.95625   0.00000  Uiso   1.00
C1284  C     0.81558   0.60098   0.83738   0.00000  Uiso   1.00
C1285  C     0.81392   0.60703   0.59349   0.00000  Uiso   1.00
C1286  C     0.93878   0.79950   0.71114   0.00000  Uiso   1.00
C1287  C     0.86000   0.83052   0.22362   0.00000  Uiso   1.00
C1288  C     0.86280   0.83230   0.47722   0.00000  Uiso   1.00
C1289  C     0.91216   0.81420   0.41701   0.00000  Uiso   1.00
C1290  C     0.84201   0.96578   0.12957   0.00000  Uiso   1.00
C1291  C     0.80150   0.95170   0.13404   0.00000  Uiso   1.00
C1292  C     0.85000   0.93873   0.04328   0.00000  Uiso   1.00
C1293  C     0.80992   0.92626   0.04565   0.00000  Uiso   1.00
C1294  C     0.90802   0.96964   0.08902   0.00000  Uiso   1.00
C1295  C     0.86587   0.95806   0.08675   0.00000  Uiso   1.00
C1296  C     0.75477   0.90080   0.10205   0.00000  Uiso   1.00
C1297  C     0.78661   0.93023   0.09321   0.00000  Uiso   1.00
C1298  C     0.84251   0.96690   0.38023   0.00000  Uiso   1.00
C1299  C     0.80141   0.95242   0.38526   0.00000  Uiso   1.00
C1300  C     0.84770   0.94392   0.29354   0.00000  Uiso   1.00
C1301  C     0.80710   0.93154   0.29646   0.00000  Uiso   1.00
C1302  C     0.90782   0.97003   0.33753   0.00000  Uiso   1.00
C1303  C     0.86536   0.95964   0.33849   0.00000  Uiso   1.00
C1304  C     0.76089   0.89937   0.35092   0.00000  Uiso   1.00
C1305  C     0.78689   0.93112   0.34382   0.00000  Uiso   1.00
C1306  C     0.87816   0.83791   0.17522   0.00000  Uiso   1.00
C1307  C     0.81803   0.82841   0.48109   0.00000  Uiso   1.00
C1308  C     0.92549   0.81390   0.25551   0.00000  Uiso   1.00
C1309  C     0.81551   0.83053   0.22891   0.00000  Uiso   1.00
C1310  C     0.88582   0.82493   0.26696   0.00000  Uiso   1.00
C1311  C     0.87754   0.83554   0.42746   0.00000  Uiso   1.00
C1312  C     0.89045   0.82140   0.01601   0.00000  Uiso   1.00
C1313  C     0.91126   0.81671   0.16248   0.00000  Uiso   1.00
C1314  C     0.92821   0.81307   0.00628   0.00000  Uiso   1.00
C1315  C     0.93784   0.80329   0.45809   0.00000  Uiso   1.00
C1316  C     0.93297   0.80063   0.20488   0.00000  Uiso   1.00
C1317  C     0.81770   0.82929   0.73122   0.00000  Uiso   1.00
C1318  C     0.84600   0.96334   0.63535   0.00000  Uiso   1.00
C1319  C     0.80619   0.95083   0.63765   0.00000  Uiso   1.00
C1320  C     0.85102   0.94192   0.54772   0.00000  Uiso   1.00
C1321  C     0.81291   0.92545   0.55106   0.00000  Uiso   1.00
C1322  C     0.91124   0.96930   0.58814   0.00000  Uiso   1.00
C1323  C     0.86901   0.95922   0.58963   0.00000  Uiso   1.00
C1324  C     0.75815   0.90114   0.60645   0.00000  Uiso   1.00
C1325  C     0.79022   0.92799   0.59893   0.00000  Uiso   1.00
C1326  C     0.84239   0.96557   0.88074   0.00000  Uiso   1.00
C1327  C     0.80352   0.95101   0.88481   0.00000  Uiso   1.00
C1328  C     0.85131   0.93225   0.79655   0.00000  Uiso   1.00
C1329  C     0.81183   0.92250   0.79850   0.00000  Uiso   1.00
C1330  C     0.91057   0.96371   0.83896   0.00000  Uiso   1.00
C1331  C     0.86768   0.95422   0.83744   0.00000  Uiso   1.00
C1332  C     0.76005   0.89785   0.85510   0.00000  Uiso   1.00
C1333  C     0.78923   0.92712   0.84422   0.00000  Uiso   1.00
C1334  C     0.81624   0.82459   0.98112   0.00000  Uiso   1.00
C1335  C     0.86160   0.82704   0.72712   0.00000  Uiso   1.00
C1336  C     0.87769   0.82915   0.92462   0.00000  Uiso   1.00
C1337  C     0.91126   0.80737   0.91381   0.00000  Uiso   1.00
C1338  C     0.92966   0.81697   0.50819   0.00000  Uiso   1.00
C1339  C     0.87960   0.83105   0.67605   0.00000  Uiso   1.00
C1340  C     0.88663   0.81539   0.76897   0.00000  Uiso   1.00
C1341  C     0.86032   0.82575   0.97509   0.00000  Uiso   1.00
C1342  C     0.88953   0.82400   0.51956   0.00000  Uiso   1.00
C1343  C     0.92773   0.81033   0.76087   0.00000  Uiso   1.00
C1344  C     0.91783   0.81497   0.66900   0.00000  Uiso   1.00
O1345  O     0.19692   0.17951   0.04274   0.00000  Uiso   1.00
O1346  O     0.03485   0.01125   0.41410   0.00000  Uiso   1.00
O1347  O     0.19634   0.18129   0.29961   0.00000  Uiso   1.00
O1348  O     0.21360   0.10996   0.01166   0.00000  Uiso   1.00
O1349  O     0.19931   0.18541   0.39055   0.00000  Uiso   1.00
O1350  O     0.19430   0.18400   0.13497   0.00000  Uiso   1.00
O1351  O     0.20746   0.11547   0.17173   0.00000  Uiso   1.00
O1352  O     0.20702   0.11444   0.26530   0.00000  Uiso   1.00
O1353  O     0.20630   0.11549   0.42383   0.00000  Uiso   1.00
O1354  O     0.03338   0.00584   0.01060   0.00000  Uiso   1.00
O1355  O     0.03087   0.00859   0.16843   0.00000  Uiso   1.00
O1356  O     0.03584   0.00274   0.25864   0.00000  Uiso   1.00
O1357  O     0.03609   0.00642   0.92092   0.00000  Uiso   1.00
O1358  O     0.19700   0.18244   0.89027   0.00000  Uiso   1.00
O1359  O     0.19954   0.18336   0.79804   0.00000  Uiso   1.00
O1360  O     0.19742   0.18234   0.63873   0.00000  Uiso   1.00
O1361  O     0.03656   0.00440   0.76194   0.00000  Uiso   1.00
O1362  O     0.21721   0.10816   0.51525   0.00000  Uiso   1.00
O1363  O     0.19458   0.17615   0.54689   0.00000  Uiso   1.00
O1364  O     0.21277   0.11025   0.67503   0.00000  Uiso   1.00
O1365  O     0.21371   0.11451   0.76641   0.00000  Uiso   1.00
O1366  O     0.03730   0.01074   0.67008   0.00000  Uiso   1.00
O1367  O     0.21105   0.11011   0.91902   0.00000  Uiso   1.00
O1368  O     0.03548   0.00823   0.50440   0.00000  Uiso   1.00
O1369  O     0.02661   0.29070   0.38193   0.00000  Uiso   1.00
O1370  O     0.04521   0.34685   0.00807   0.00000  Uiso   1.00
O1371  O     0.04014   0.35666   0.41351   0.00000  Uiso   1.00
O1372  O     0.01894   0.28260   0.04000   0.00000  Uiso   1.00
O1373  O     0.04077   0.35486   0.26005   0.00000  Uiso   1.00
O1374  O     0.02539   0.28574   0.13090   0.00000  Uiso   1.00
O1375  O     0.03893   0.36068   0.16777   0.00000  Uiso   1.00
O1376  O     0.02132   0.28794   0.29153   0.00000  Uiso   1.00
O1377  O     0.03042   0.29375   0.79164   0.00000  Uiso   1.00
O1378  O     0.04187   0.35749   0.91814   0.00000  Uiso   1.00
O1379  O     0.03210   0.29194   0.63258   0.00000  Uiso   1.00
O1380  O     0.04579   0.36012   0.75488   0.00000  Uiso   1.00
O1381  O     0.04071   0.36326   0.66209   0.00000  Uiso   1.00
O1382  O     0.02338   0.28974   0.88211   0.00000  Uiso   1.00
O1383  O     0.02551   0.28697   0.53902   0.00000  Uiso   1.00
O1384  O     0.04106   0.35586   0.50484   0.00000  Uiso   1.00
O1385  O     0.19802   0.48082   0.41460   0.00000  Uiso   1.00
O1386  O     0.20187   0.47756   0.00751   0.00000  Uiso   1.00
O1387  O     0.19750   0.47942   0.16514   0.00000  Uiso   1.00
O1388  O     0.19828   0.48115   0.25622   0.00000  Uiso   1.00
O1389  O     0.18518   0.55294   0.38055   0.00000  Uiso   1.00
O1390  O     0.18466   0.55087   0.28981   0.00000  Uiso   1.00
O1391  O     0.18091   0.54911   0.13449   0.00000  Uiso   1.00
O1392  O     0.18046   0.54681   0.04079   0.00000  Uiso   1.00
O1393  O     0.19864   0.48542   0.66416   0.00000  Uiso   1.00
O1394  O     0.20065   0.47713   0.91546   0.00000  Uiso   1.00
O1395  O     0.18042   0.54731   0.78648   0.00000  Uiso   1.00
O1396  O     0.17826   0.54514   0.87922   0.00000  Uiso   1.00
O1397  O     0.20314   0.47942   0.75414   0.00000  Uiso   1.00
O1398  O     0.18431   0.55229   0.63078   0.00000  Uiso   1.00
O1399  O     0.18227   0.54709   0.53819   0.00000  Uiso   1.00
O1400  O     0.20326   0.47819   0.50644   0.00000  Uiso   1.00
O1401  O     0.04008   0.71812   0.40466   0.00000  Uiso   1.00
O1402  O     0.04154   0.71444   0.25105   0.00000  Uiso   1.00
O1403  O     0.21908   0.79262   0.16365   0.00000  Uiso   1.00
O1404  O     0.04244   0.71590   0.15968   0.00000  Uiso   1.00
O1405  O     0.01367   0.65396   0.28266   0.00000  Uiso   1.00
O1406  O     0.21842   0.79486   0.41508   0.00000  Uiso   1.00
O1407  O     0.22835   0.79166   0.25514   0.00000  Uiso   1.00
O1408  O     0.00512   0.64932   0.03061   0.00000  Uiso   1.00
O1409  O     0.01090   0.65250   0.12459   0.00000  Uiso   1.00
O1410  O     0.22265   0.79200   0.00653   0.00000  Uiso   1.00
O1411  O     0.00447   0.65449   0.37169   0.00000  Uiso   1.00
O1412  O     0.04082   0.71902   0.49824   0.00000  Uiso   1.00
O1413  O     0.04237   0.70338   0.90598   0.00000  Uiso   1.00
O1414  O     0.04181   0.71412   0.74878   0.00000  Uiso   1.00
O1415  O     0.23127   0.79199   0.75246   0.00000  Uiso   1.00
O1416  O     0.04308   0.71791   0.65834   0.00000  Uiso   1.00
O1417  O     0.22231   0.79307   0.65988   0.00000  Uiso   1.00
O1418  O     0.01500   0.65345   0.53089   0.00000  Uiso   1.00
O1419  O     0.21784   0.79117   0.91318   0.00000  Uiso   1.00
O1420  O     0.01019   0.64828   0.78063   0.00000  Uiso   1.00
O1421  O     0.23329   0.79107   0.50568   0.00000  Uiso   1.00
O1422  O     0.00153   0.64435   0.87187   0.00000  Uiso   1.00
O1423  O     0.00838   0.65216   0.62161   0.00000  Uiso   1.00
O1424  O     0.04027   0.71042   0.99751   0.00000  Uiso   1.00
O1425  O     0.00733   0.94306   0.13432   0.00000  Uiso   1.00
O1426  O     0.00515   0.94239   0.04488   0.00000  Uiso   1.00
O1427  O     0.00691   0.94271   0.38861   0.00000  Uiso   1.00
O1428  O     0.18275   0.85383   0.03992   0.00000  Uiso   1.00
O1429  O     0.18157   0.84372   0.28603   0.00000  Uiso   1.00
O1430  O     0.18602   0.86002   0.37707   0.00000  Uiso   1.00
O1431  O     0.18225   0.85600   0.13108   0.00000  Uiso   1.00
O1432  O     0.24755   0.89568   0.28924   0.00000  Uiso   1.00
O1433  O     0.18221   0.84562   0.78850   0.00000  Uiso   1.00
O1434  O     0.00536   0.94289   0.54242   0.00000  Uiso   1.00
O1435  O     0.00816   0.94137   0.88581   0.00000  Uiso   1.00
O1436  O     0.18659   0.84875   0.53874   0.00000  Uiso   1.00
O1437  O     0.18143   0.85556   0.87905   0.00000  Uiso   1.00
O1438  O     0.00816   0.94202   0.63278   0.00000  Uiso   1.00
O1439  O     0.18640   0.85391   0.62946   0.00000  Uiso   1.00
O1440  O     0.24890   0.89372   0.79210   0.00000  Uiso   1.00
O1441  O     0.00115   0.94249   0.79557   0.00000  Uiso   1.00
O1442  O     0.28928   0.12547   0.42400   0.00000  Uiso   1.00
O1443  O     0.29494   0.12946   0.01500   0.00000  Uiso   1.00
O1444  O     0.46815   0.02713   0.42201   0.00000  Uiso   1.00
O1445  O     0.47254   0.03425   0.17283   0.00000  Uiso   1.00
O1446  O     0.29109   0.12557   0.26220   0.00000  Uiso   1.00
O1447  O     0.46490   0.03026   0.26380   0.00000  Uiso   1.00
O1448  O     0.28995   0.12850   0.17162   0.00000  Uiso   1.00
O1449  O     0.47078   0.03261   0.01019   0.00000  Uiso   1.00
O1450  O     0.28105   0.19469   0.29445   0.00000  Uiso   1.00
O1451  O     0.27543   0.19985   0.04642   0.00000  Uiso   1.00
O1452  O     0.28111   0.19481   0.38678   0.00000  Uiso   1.00
O1453  O     0.27817   0.19521   0.13903   0.00000  Uiso   1.00
O1454  O     0.29515   0.12898   0.67376   0.00000  Uiso   1.00
O1455  O     0.29308   0.12877   0.92236   0.00000  Uiso   1.00
O1456  O     0.46679   0.02508   0.51361   0.00000  Uiso   1.00
O1457  O     0.47726   0.02961   0.66863   0.00000  Uiso   1.00
O1458  O     0.29626   0.12572   0.76820   0.00000  Uiso   1.00
O1459  O     0.47462   0.03362   0.75940   0.00000  Uiso   1.00
O1460  O     0.47307   0.03113   0.92013   0.00000  Uiso   1.00
O1461  O     0.29747   0.13614   0.51497   0.00000  Uiso   1.00
O1462  O     0.27651   0.19792   0.63948   0.00000  Uiso   1.00
O1463  O     0.27068   0.20000   0.54910   0.00000  Uiso   1.00
O1464  O     0.27744   0.19627   0.89231   0.00000  Uiso   1.00
O1465  O     0.28543   0.19503   0.80080   0.00000  Uiso   1.00
O1466  O     0.45621   0.39072   0.42161   0.00000  Uiso   1.00
O1467  O     0.44087   0.31850   0.38975   0.00000  Uiso   1.00
O1468  O     0.45670   0.38822   0.17507   0.00000  Uiso   1.00
O1469  O     0.44391   0.31473   0.29891   0.00000  Uiso   1.00
O1470  O     0.43928   0.31972   0.13992   0.00000  Uiso   1.00
O1471  O     0.45104   0.38880   0.01478   0.00000  Uiso   1.00
O1472  O     0.43733   0.31761   0.04758   0.00000  Uiso   1.00
O1473  O     0.44895   0.38500   0.26518   0.00000  Uiso   1.00
O1474  O     0.45424   0.38843   0.92044   0.00000  Uiso   1.00
O1475  O     0.43736   0.31932   0.89034   0.00000  Uiso   1.00
O1476  O     0.45565   0.39164   0.67029   0.00000  Uiso   1.00
O1477  O     0.44150   0.31700   0.79831   0.00000  Uiso   1.00
O1478  O     0.44826   0.38544   0.76169   0.00000  Uiso   1.00
O1479  O     0.43438   0.32064   0.63886   0.00000  Uiso   1.00
O1480  O     0.44044   0.31810   0.54599   0.00000  Uiso   1.00
O1481  O     0.45150   0.38655   0.51451   0.00000  Uiso   1.00
O1482  O     0.28205   0.49553   0.25577   0.00000  Uiso   1.00
O1483  O     0.28076   0.50144   0.00674   0.00000  Uiso   1.00
O1484  O     0.26645   0.56556   0.29368   0.00000  Uiso   1.00
O1485  O     0.26894   0.56470   0.38401   0.00000  Uiso   1.00
O1486  O     0.28118   0.49746   0.16526   0.00000  Uiso   1.00
O1487  O     0.26219   0.56595   0.13092   0.00000  Uiso   1.00
O1488  O     0.27873   0.49459   0.41792   0.00000  Uiso   1.00
O1489  O     0.25530   0.56949   0.04052   0.00000  Uiso   1.00
O1490  O     0.26431   0.56865   0.79227   0.00000  Uiso   1.00
O1491  O     0.28416   0.50209   0.75942   0.00000  Uiso   1.00
O1492  O     0.26519   0.57008   0.63125   0.00000  Uiso   1.00
O1493  O     0.28307   0.49998   0.51130   0.00000  Uiso   1.00
O1494  O     0.26647   0.56687   0.53935   0.00000  Uiso   1.00
O1495  O     0.28036   0.49897   0.66604   0.00000  Uiso   1.00
O1496  O     0.25909   0.56973   0.88337   0.00000  Uiso   1.00
O1497  O     0.28092   0.49983   0.91512   0.00000  Uiso   1.00
O1498  O     0.47091   0.73477   0.26310   0.00000  Uiso   1.00
O1499  O     0.44300   0.66511   0.38844   0.00000  Uiso   1.00
O1500  O     0.46855   0.73269   0.42251   0.00000  Uiso   1.00
O1501  O     0.43921   0.67359   0.29885   0.00000  Uiso   1.00
O1502  O     0.47066   0.73466   0.01467   0.00000  Uiso   1.00
O1503  O     0.46423   0.73104   0.17099   0.00000  Uiso   1.00
O1504  O     0.43555   0.67402   0.04719   0.00000  Uiso   1.00
O1505  O     0.44117   0.66390   0.13827   0.00000  Uiso   1.00
O1506  O     0.47697   0.73578   0.76093   0.00000  Uiso   1.00
O1507  O     0.46750   0.73250   0.92223   0.00000  Uiso   1.00
O1508  O     0.44094   0.67172   0.54596   0.00000  Uiso   1.00
O1509  O     0.44344   0.66195   0.63650   0.00000  Uiso   1.00
O1510  O     0.47296   0.73303   0.51568   0.00000  Uiso   1.00
O1511  O     0.43909   0.66696   0.88758   0.00000  Uiso   1.00
O1512  O     0.46454   0.73058   0.67280   0.00000  Uiso   1.00
O1513  O     0.43830   0.67288   0.79538   0.00000  Uiso   1.00
O1514  O     0.43867   0.96795   0.29754   0.00000  Uiso   1.00
O1515  O     0.25820   0.88928   0.12937   0.00000  Uiso   1.00
O1516  O     0.29395   0.83012   0.00666   0.00000  Uiso   1.00
O1517  O     0.43768   0.97187   0.13685   0.00000  Uiso   1.00
O1518  O     0.43767   0.97201   0.04585   0.00000  Uiso   1.00
O1519  O     0.29452   0.83773   0.25430   0.00000  Uiso   1.00
O1520  O     0.29591   0.82788   0.41262   0.00000  Uiso   1.00
O1521  O     0.43941   0.96180   0.38834   0.00000  Uiso   1.00
O1522  O     0.25608   0.89219   0.04015   0.00000  Uiso   1.00
O1523  O     0.29371   0.82723   0.16260   0.00000  Uiso   1.00
O1524  O     0.26497   0.89204   0.37747   0.00000  Uiso   1.00
O1525  O     0.29128   0.82480   0.91454   0.00000  Uiso   1.00
O1526  O     0.25307   0.89449   0.54099   0.00000  Uiso   1.00
O1527  O     0.43772   0.97294   0.79237   0.00000  Uiso   1.00
O1528  O     0.26005   0.89175   0.63190   0.00000  Uiso   1.00
O1529  O     0.43877   0.96836   0.63600   0.00000  Uiso   1.00
O1530  O     0.44408   0.96068   0.54706   0.00000  Uiso   1.00
O1531  O     0.43945   0.97076   0.88639   0.00000  Uiso   1.00
O1532  O     0.29654   0.82985   0.66870   0.00000  Uiso   1.00
O1533  O     0.29660   0.83817   0.75883   0.00000  Uiso   1.00
O1534  O     0.25857   0.88784   0.88369   0.00000  Uiso   1.00
O1535  O     0.29889   0.84075   0.50439   0.00000  Uiso   1.00
O1536  O     0.70506   0.12024   0.01615   0.00000  Uiso   1.00
O1537  O     0.68483   0.18512   0.13718   0.00000  Uiso   1.00
O1538  O     0.68832   0.19215   0.29840   0.00000  Uiso   1.00
O1539  O     0.68711   0.18766   0.38888   0.00000  Uiso   1.00
O1540  O     0.70419   0.12115   0.42458   0.00000  Uiso   1.00
O1541  O     0.54916   0.00177   0.00955   0.00000  Uiso   1.00
O1542  O     0.68748   0.19050   0.04400   0.00000  Uiso   1.00
O1543  O     0.70865   0.11866   0.17441   0.00000  Uiso   1.00
O1544  O     0.70140   0.12263   0.26474   0.00000  Uiso   1.00
O1545  O     0.54296   0.00031   0.26354   0.00000  Uiso   1.00
O1546  O     0.68615   0.19276   0.54877   0.00000  Uiso   1.00
O1547  O     0.68388   0.18630   0.79519   0.00000  Uiso   1.00
O1548  O     0.68428   0.18712   0.88875   0.00000  Uiso   1.00
O1549  O     0.70589   0.12097   0.92323   0.00000  Uiso   1.00
O1550  O     0.69735   0.12574   0.51344   0.00000  Uiso   1.00
O1551  O     0.70701   0.11698   0.67218   0.00000  Uiso   1.00
O1552  O     0.68332   0.18364   0.64106   0.00000  Uiso   1.00
O1553  O     0.70637   0.11723   0.76504   0.00000  Uiso   1.00
O1554  O     0.54604   0.00021   0.51285   0.00000  Uiso   1.00
O1555  O     0.52106   0.30314   0.04398   0.00000  Uiso   1.00
O1556  O     0.53518   0.37300   0.01444   0.00000  Uiso   1.00
O1557  O     0.52649   0.30728   0.29645   0.00000  Uiso   1.00
O1558  O     0.53784   0.37502   0.42482   0.00000  Uiso   1.00
O1559  O     0.53448   0.37906   0.26245   0.00000  Uiso   1.00
O1560  O     0.53948   0.37035   0.17183   0.00000  Uiso   1.00
O1561  O     0.52512   0.30759   0.38911   0.00000  Uiso   1.00
O1562  O     0.52108   0.30276   0.13650   0.00000  Uiso   1.00
O1563  O     0.51748   0.30344   0.88871   0.00000  Uiso   1.00
O1564  O     0.52200   0.30533   0.79501   0.00000  Uiso   1.00
O1565  O     0.52417   0.30622   0.54624   0.00000  Uiso   1.00
O1566  O     0.53695   0.37266   0.92355   0.00000  Uiso   1.00
O1567  O     0.51524   0.30111   0.63786   0.00000  Uiso   1.00
O1568  O     0.53475   0.37805   0.51775   0.00000  Uiso   1.00
O1569  O     0.53297   0.37614   0.76557   0.00000  Uiso   1.00
O1570  O     0.53603   0.37028   0.67287   0.00000  Uiso   1.00
O1571  O     0.71834   0.47093   0.41536   0.00000  Uiso   1.00
O1572  O     0.69264   0.54407   0.13402   0.00000  Uiso   1.00
O1573  O     0.69675   0.54271   0.29455   0.00000  Uiso   1.00
O1574  O     0.71009   0.47691   0.01241   0.00000  Uiso   1.00
O1575  O     0.71258   0.47418   0.25976   0.00000  Uiso   1.00
O1576  O     0.69154   0.53708   0.38753   0.00000  Uiso   1.00
O1577  O     0.71519   0.47452   0.16717   0.00000  Uiso   1.00
O1578  O     0.69336   0.54391   0.04058   0.00000  Uiso   1.00
O1579  O     0.71762   0.47182   0.50831   0.00000  Uiso   1.00
O1580  O     0.71167   0.47413   0.66940   0.00000  Uiso   1.00
O1581  O     0.69396   0.54075   0.63492   0.00000  Uiso   1.00
O1582  O     0.69585   0.54205   0.79884   0.00000  Uiso   1.00
O1583  O     0.71019   0.47264   0.76107   0.00000  Uiso   1.00
O1584  O     0.69166   0.53885   0.89080   0.00000  Uiso   1.00
O1585  O     0.71578   0.46930   0.92458   0.00000  Uiso   1.00
O1586  O     0.69536   0.53835   0.54375   0.00000  Uiso   1.00
O1587  O     0.54963   0.70486   0.42697   0.00000  Uiso   1.00
O1588  O     0.54788   0.69865   0.26758   0.00000  Uiso   1.00
O1589  O     0.52397   0.64069   0.38885   0.00000  Uiso   1.00
O1590  O     0.51767   0.63898   0.14234   0.00000  Uiso   1.00
O1591  O     0.51134   0.63721   0.05014   0.00000  Uiso   1.00
O1592  O     0.54397   0.70324   0.17610   0.00000  Uiso   1.00
O1593  O     0.73748   0.78211   0.02029   0.00000  Uiso   1.00
O1594  O     0.54671   0.69843   0.01755   0.00000  Uiso   1.00
O1595  O     0.72344   0.78387   0.43225   0.00000  Uiso   1.00
O1596  O     0.73678   0.77650   0.27187   0.00000  Uiso   1.00
O1597  O     0.72695   0.78211   0.18235   0.00000  Uiso   1.00
O1598  O     0.51108   0.63644   0.29932   0.00000  Uiso   1.00
O1599  O     0.54609   0.70572   0.92496   0.00000  Uiso   1.00
O1600  O     0.54830   0.69598   0.76635   0.00000  Uiso   1.00
O1601  O     0.51833   0.63717   0.89314   0.00000  Uiso   1.00
O1602  O     0.52552   0.64035   0.64399   0.00000  Uiso   1.00
O1603  O     0.54524   0.70732   0.67592   0.00000  Uiso   1.00
O1604  O     0.51168   0.63831   0.80021   0.00000  Uiso   1.00
O1605  O     0.72227   0.78341   0.92985   0.00000  Uiso   1.00
O1606  O     0.51653   0.63771   0.55071   0.00000  Uiso   1.00
O1607  O     0.73529   0.77809   0.77278   0.00000  Uiso   1.00
O1608  O     0.72934   0.78184   0.68166   0.00000  Uiso   1.00
O1609  O     0.73920   0.78171   0.52169   0.00000  Uiso   1.00
O1610  O     0.55063   0.70029   0.51761   0.00000  Uiso   1.00
O1611  O     0.51361   0.93385   0.29381   0.00000  Uiso   1.00
O1612  O     0.68577   0.82992   0.30975   0.00000  Uiso   1.00
O1613  O     0.51628   0.93310   0.04520   0.00000  Uiso   1.00
O1614  O     0.51623   0.93352   0.38514   0.00000  Uiso   1.00
O1615  O     0.68401   0.83371   0.05531   0.00000  Uiso   1.00
O1616  O     0.74711   0.88170   0.30852   0.00000  Uiso   1.00
O1617  O     0.68792   0.84455   0.39781   0.00000  Uiso   1.00
O1618  O     0.68469   0.84295   0.14585   0.00000  Uiso   1.00
O1619  O     0.51128   0.93427   0.13823   0.00000  Uiso   1.00
O1620  O     0.74134   0.88585   0.05864   0.00000  Uiso   1.00
O1621  O     0.54471   0.99847   0.17281   0.00000  Uiso   1.00
O1622  O     0.54569   0.99943   0.42054   0.00000  Uiso   1.00
O1623  O     0.51303   0.93254   0.79390   0.00000  Uiso   1.00
O1624  O     0.52222   0.93293   0.54484   0.00000  Uiso   1.00
O1625  O     0.68724   0.83396   0.80799   0.00000  Uiso   1.00
O1626  O     0.68574   0.83035   0.55779   0.00000  Uiso   1.00
O1627  O     0.68930   0.84720   0.89653   0.00000  Uiso   1.00
O1628  O     0.51208   0.93127   0.63670   0.00000  Uiso   1.00
O1629  O     0.68682   0.83981   0.65056   0.00000  Uiso   1.00
O1630  O     0.51306   0.93246   0.88701   0.00000  Uiso   1.00
O1631  O     0.54932   0.98905   0.66677   0.00000  Uiso   1.00
O1632  O     0.74291   0.88728   0.56341   0.00000  Uiso   1.00
O1633  O     0.54858   0.99517   0.91968   0.00000  Uiso   1.00
O1634  O     0.74586   0.88328   0.81133   0.00000  Uiso   1.00
O1635  O     0.54856   0.99593   0.75730   0.00000  Uiso   1.00
O1636  O     0.78706   0.14127   0.42251   0.00000  Uiso   1.00
O1637  O     0.78619   0.13712   0.01216   0.00000  Uiso   1.00
O1638  O     0.95906   0.03771   0.41666   0.00000  Uiso   1.00
O1639  O     0.78427   0.14183   0.17448   0.00000  Uiso   1.00
O1640  O     0.78384   0.13713   0.26609   0.00000  Uiso   1.00
O1641  O     0.95881   0.03985   0.25913   0.00000  Uiso   1.00
O1642  O     0.95604   0.03741   0.01161   0.00000  Uiso   1.00
O1643  O     0.95594   0.03814   0.16789   0.00000  Uiso   1.00
O1644  O     0.95781   0.03849   0.50670   0.00000  Uiso   1.00
O1645  O     0.95860   0.03513   0.91869   0.00000  Uiso   1.00
O1646  O     0.78248   0.13628   0.51310   0.00000  Uiso   1.00
O1647  O     0.96042   0.03803   0.66886   0.00000  Uiso   1.00
O1648  O     0.78531   0.13917   0.75969   0.00000  Uiso   1.00
O1649  O     0.78472   0.14214   0.66934   0.00000  Uiso   1.00
O1650  O     0.96080   0.03705   0.75904   0.00000  Uiso   1.00
O1651  O     0.78692   0.14259   0.92002   0.00000  Uiso   1.00
O1652  O     0.95699   0.37168   0.16451   0.00000  Uiso   1.00
O1653  O     0.76923   0.20515   0.29734   0.00000  Uiso   1.00
O1654  O     0.95655   0.37133   0.41803   0.00000  Uiso   1.00
O1655  O     0.95948   0.37647   0.25567   0.00000  Uiso   1.00
O1656  O     0.93896   0.30895   0.28929   0.00000  Uiso   1.00
O1657  O     0.96741   0.37767   0.00758   0.00000  Uiso   1.00
O1658  O     0.94563   0.30315   0.12808   0.00000  Uiso   1.00
O1659  O     0.93928   0.31094   0.03686   0.00000  Uiso   1.00
O1660  O     0.76284   0.21125   0.38836   0.00000  Uiso   1.00
O1661  O     0.94301   0.30232   0.38130   0.00000  Uiso   1.00
O1662  O     0.76343   0.20825   0.13779   0.00000  Uiso   1.00
O1663  O     0.76824   0.20717   0.04536   0.00000  Uiso   1.00
O1664  O     0.76495   0.21003   0.79615   0.00000  Uiso   1.00
O1665  O     0.95883   0.37584   0.91451   0.00000  Uiso   1.00
O1666  O     0.96191   0.37596   0.75764   0.00000  Uiso   1.00
O1667  O     0.76107   0.20980   0.64311   0.00000  Uiso   1.00
O1668  O     0.94347   0.30833   0.88086   0.00000  Uiso   1.00
O1669  O     0.76907   0.20606   0.55160   0.00000  Uiso   1.00
O1670  O     0.94873   0.30465   0.63437   0.00000  Uiso   1.00
O1671  O     0.94475   0.30124   0.54157   0.00000  Uiso   1.00
O1672  O     0.94497   0.30794   0.78782   0.00000  Uiso   1.00
O1673  O     0.95940   0.37487   0.66404   0.00000  Uiso   1.00
O1674  O     0.95576   0.36990   0.50674   0.00000  Uiso   1.00
O1675  O     0.76701   0.20639   0.88725   0.00000  Uiso   1.00
O1676  O     0.79659   0.49429   0.25592   0.00000  Uiso   1.00
O1677  O     0.79344   0.49294   0.01118   0.00000  Uiso   1.00
O1678  O     0.77389   0.56345   0.04115   0.00000  Uiso   1.00
O1679  O     0.77290   0.56272   0.38184   0.00000  Uiso   1.00
O1680  O     0.79463   0.49647   0.16453   0.00000  Uiso   1.00
O1681  O     0.77787   0.56236   0.28984   0.00000  Uiso   1.00
O1682  O     0.77068   0.56609   0.13038   0.00000  Uiso   1.00
O1683  O     0.79734   0.49452   0.41675   0.00000  Uiso   1.00
O1684  O     0.79245   0.48547   0.75945   0.00000  Uiso   1.00
O1685  O     0.79578   0.49176   0.66928   0.00000  Uiso   1.00
O1686  O     0.77663   0.55518   0.79307   0.00000  Uiso   1.00
O1687  O     0.79879   0.49516   0.50887   0.00000  Uiso   1.00
O1688  O     0.77350   0.56139   0.63793   0.00000  Uiso   1.00
O1689  O     0.77494   0.56241   0.54583   0.00000  Uiso   1.00
O1690  O     0.77121   0.56156   0.88578   0.00000  Uiso   1.00
O1691  O     0.79504   0.49254   0.91843   0.00000  Uiso   1.00
O1692  O     0.96283   0.74731   0.24554   0.00000  Uiso   1.00
O1693  O     0.93109   0.68109   0.03082   0.00000  Uiso   1.00
O1694  O     0.96525   0.75218   0.40833   0.00000  Uiso   1.00
O1695  O     0.93180   0.68766   0.37400   0.00000  Uiso   1.00
O1696  O     0.96387   0.74959   0.15372   0.00000  Uiso   1.00
O1697  O     0.93555   0.68254   0.12117   0.00000  Uiso   1.00
O1698  O     0.93451   0.68026   0.28097   0.00000  Uiso   1.00
O1699  O     0.96430   0.74876   0.49958   0.00000  Uiso   1.00
O1700  O     0.96688   0.74633   0.75347   0.00000  Uiso   1.00
O1701  O     0.97045   0.74630   0.90760   0.00000  Uiso   1.00
O1702  O     0.93211   0.68677   0.87486   0.00000  Uiso   1.00
O1703  O     0.96754   0.74989   0.66065   0.00000  Uiso   1.00
O1704  O     0.93316   0.68058   0.78463   0.00000  Uiso   1.00
O1705  O     0.93537   0.68770   0.62206   0.00000  Uiso   1.00
O1706  O     0.96539   0.74625   0.99943   0.00000  Uiso   1.00
O1707  O     0.93546   0.68048   0.53243   0.00000  Uiso   1.00
O1708  O     0.79944   0.83735   0.02319   0.00000  Uiso   1.00
O1709  O     0.92450   0.97664   0.29072   0.00000  Uiso   1.00
O1710  O     0.75532   0.88453   0.15008   0.00000  Uiso   1.00
O1711  O     0.92544   0.97313   0.13410   0.00000  Uiso   1.00
O1712  O     0.92610   0.97242   0.04410   0.00000  Uiso   1.00
O1713  O     0.75993   0.88400   0.39779   0.00000  Uiso   1.00
O1714  O     0.92775   0.97075   0.38314   0.00000  Uiso   1.00
O1715  O     0.79712   0.82332   0.43724   0.00000  Uiso   1.00
O1716  O     0.79935   0.83281   0.27528   0.00000  Uiso   1.00
O1717  O     0.79477   0.82215   0.18622   0.00000  Uiso   1.00
O1718  O     0.99903   0.93981   0.29404   0.00000  Uiso   1.00
O1719  O     0.80088   0.83354   0.52672   0.00000  Uiso   1.00
O1720  O     0.80079   0.83049   0.77752   0.00000  Uiso   1.00
O1721  O     0.92755   0.97193   0.79284   0.00000  Uiso   1.00
O1722  O     0.79749   0.82571   0.68553   0.00000  Uiso   1.00
O1723  O     0.93036   0.97328   0.63417   0.00000  Uiso   1.00
O1724  O     0.92828   0.97574   0.54323   0.00000  Uiso   1.00
O1725  O     0.76201   0.87972   0.90069   0.00000  Uiso   1.00
O1726  O     0.79380   0.81489   0.93921   0.00000  Uiso   1.00
O1727  O     0.92798   0.96796   0.88544   0.00000  Uiso   1.00
O1728  O     0.75614   0.88382   0.65168   0.00000  Uiso   1.00
O1729  O     0.23868   0.17377   0.46901   0.00000  Uiso   1.00
O1730  O     0.23649   0.17577   0.21874   0.00000  Uiso   1.00
O1731  O     0.24852   0.13614   0.34477   0.00000  Uiso   1.00
O1732  O     0.23749   0.17234   0.96804   0.00000  Uiso   1.00
O1733  O     0.24416   0.17377   0.72005   0.00000  Uiso   1.00
O1734  O     0.22789   0.54233   0.21172   0.00000  Uiso   1.00
O1735  O     0.22693   0.54273   0.46089   0.00000  Uiso   1.00
O1736  O     0.23413   0.50163   0.08570   0.00000  Uiso   1.00
O1737  O     0.23816   0.50079   0.33546   0.00000  Uiso   1.00
O1738  O     0.22949   0.54606   0.70949   0.00000  Uiso   1.00
O1739  O     0.23725   0.50508   0.83462   0.00000  Uiso   1.00
O1740  O     0.23746   0.50603   0.58740   0.00000  Uiso   1.00
O1741  O     0.22197   0.54344   0.95796   0.00000  Uiso   1.00
O1742  O     0.00064   0.71384   0.82952   0.00000  Uiso   1.00
O1743  O     0.23239   0.86183   0.46009   0.00000  Uiso   1.00
O1744  O     0.22658   0.85515   0.20931   0.00000  Uiso   1.00
O1745  O     0.24939   0.82540   0.08454   0.00000  Uiso   1.00
O1746  O     0.22800   0.86146   0.71061   0.00000  Uiso   1.00
O1747  O     0.22827   0.85768   0.95862   0.00000  Uiso   1.00
O1748  O     0.24916   0.82573   0.83424   0.00000  Uiso   1.00
O1749  O     0.25020   0.13572   0.09300   0.00000  Uiso   1.00
O1750  O     0.25125   0.13538   0.84245   0.00000  Uiso   1.00
O1751  O     0.25057   0.13553   0.59516   0.00000  Uiso   1.00
O1752  O     0.48660   0.32877   0.46958   0.00000  Uiso   1.00
O1753  O     0.49424   0.36735   0.34246   0.00000  Uiso   1.00
O1754  O     0.49096   0.36704   0.09292   0.00000  Uiso   1.00
O1755  O     0.48555   0.32483   0.22027   0.00000  Uiso   1.00
O1756  O     0.48915   0.36753   0.59307   0.00000  Uiso   1.00
O1757  O     0.49128   0.36450   0.84287   0.00000  Uiso   1.00
O1758  O     0.48205   0.32661   0.96702   0.00000  Uiso   1.00
O1759  O     0.48071   0.32617   0.71872   0.00000  Uiso   1.00
O1760  O     0.48605   0.66747   0.47045   0.00000  Uiso   1.00
O1761  O     0.48417   0.66666   0.22113   0.00000  Uiso   1.00
O1762  O     0.48178   0.66721   0.97014   0.00000  Uiso   1.00
O1763  O     0.48459   0.66433   0.71925   0.00000  Uiso   1.00
O1764  O     0.48263   0.96563   0.21564   0.00000  Uiso   1.00
O1765  O     0.48516   0.96079   0.46745   0.00000  Uiso   1.00
O1766  O     0.25048   0.82574   0.33309   0.00000  Uiso   1.00
O1767  O     0.49851   0.99980   0.34191   0.00000  Uiso   1.00
O1768  O     0.48451   0.96549   0.96578   0.00000  Uiso   1.00
O1769  O     0.48281   0.96352   0.71625   0.00000  Uiso   1.00
O1770  O     0.25578   0.82624   0.58399   0.00000  Uiso   1.00
O1771  O     0.74136   0.14605   0.34357   0.00000  Uiso   1.00
O1772  O     0.74111   0.14430   0.09311   0.00000  Uiso   1.00
O1773  O     0.72874   0.18269   0.21673   0.00000  Uiso   1.00
O1774  O     0.73035   0.18587   0.46691   0.00000  Uiso   1.00
O1775  O     0.50052   0.00264   0.09210   0.00000  Uiso   1.00
O1776  O     0.72798   0.18059   0.71862   0.00000  Uiso   1.00
O1777  O     0.74070   0.14375   0.84291   0.00000  Uiso   1.00
O1778  O     0.73092   0.18446   0.96680   0.00000  Uiso   1.00
O1779  O     0.73796   0.14446   0.59186   0.00000  Uiso   1.00
O1780  O     0.73934   0.53665   0.46337   0.00000  Uiso   1.00
O1781  O     0.74010   0.54021   0.21270   0.00000  Uiso   1.00
O1782  O     0.74806   0.49967   0.08782   0.00000  Uiso   1.00
O1783  O     0.74990   0.49518   0.84379   0.00000  Uiso   1.00
O1784  O     0.73796   0.53601   0.96497   0.00000  Uiso   1.00
O1785  O     0.73837   0.53439   0.71782   0.00000  Uiso   1.00
O1786  O     0.50542   0.70346   0.34501   0.00000  Uiso   1.00
O1787  O     0.50215   0.70606   0.09266   0.00000  Uiso   1.00
O1788  O     0.50277   0.70526   0.84418   0.00000  Uiso   1.00
O1789  O     0.50561   0.70329   0.59539   0.00000  Uiso   1.00
O1790  O     0.73121   0.85126   0.48173   0.00000  Uiso   1.00
O1791  O     0.72517   0.84592   0.23107   0.00000  Uiso   1.00
O1792  O     0.72864   0.84817   0.72967   0.00000  Uiso   1.00
O1793  O     0.73069   0.85014   0.97922   0.00000  Uiso   1.00
O1794  O     0.50710   0.99783   0.59072   0.00000  Uiso   1.00
O1795  O     0.50361   0.99859   0.83884   0.00000  Uiso   1.00
O1796  O     0.98727   0.01057   0.09009   0.00000  Uiso   1.00
O1797  O     0.98800   0.00809   0.33672   0.00000  Uiso   1.00
O1798  O     0.99036   0.00655   0.84093   0.00000  Uiso   1.00
O1799  O     0.99521   0.00924   0.58705   0.00000  Uiso   1.00
O1800  O     0.99421   0.35344   0.33983   0.00000  Uiso   1.00
O1801  O     0.98965   0.30818   0.46106   0.00000  Uiso   1.00
O1802  O     0.98630   0.31059   0.21205   0.00000  Uiso   1.00
O1803  O     0.99705   0.35025   0.08541   0.00000  Uiso   1.00
O1804  O     0.99363   0.31433   0.71077   0.00000  Uiso   1.00
O1805  O     0.98798   0.31195   0.96168   0.00000  Uiso   1.00
O1806  O     0.99852   0.35499   0.83512   0.00000  Uiso   1.00
O1807  O     0.99433   0.35207   0.58382   0.00000  Uiso   1.00
O1808  O     0.75165   0.49836   0.33588   0.00000  Uiso   1.00
O1809  O     0.75029   0.49584   0.58829   0.00000  Uiso   1.00
O1810  O     0.99741   0.71847   0.07806   0.00000  Uiso   1.00
O1811  O     0.97983   0.68026   0.20221   0.00000  Uiso   1.00
O1812  O     0.97593   0.68449   0.45188   0.00000  Uiso   1.00
O1813  O     0.99432   0.71932   0.32448   0.00000  Uiso   1.00
O1814  O     0.97413   0.67859   0.95321   0.00000  Uiso   1.00
O1815  O     0.99677   0.72056   0.57806   0.00000  Uiso   1.00
O1816  O     0.97986   0.68113   0.70290   0.00000  Uiso   1.00
O1817  O     0.75342   0.81775   0.10509   0.00000  Uiso   1.00
O1818  O     0.97225   0.97263   0.21278   0.00000  Uiso   1.00
O1819  O     0.97293   0.97201   0.46219   0.00000  Uiso   1.00
O1820  O     0.75753   0.81458   0.35596   0.00000  Uiso   1.00
O1821  O     0.75587   0.81265   0.85456   0.00000  Uiso   1.00
O1822  O     0.97344   0.97165   0.71260   0.00000  Uiso   1.00
O1823  O     0.97276   0.96992   0.96419   0.00000  Uiso   1.00
O1824  O     0.75468   0.81598   0.60344   0.00000  Uiso   1.00
