data_final_I-Fe-SABVOH01
_audit_creation_date              2022-12-15
_audit_creation_method            'Materials Studio'
_symmetry_space_group_name_H-M    'P1'
_symmetry_Int_Tables_number       1
_symmetry_cell_setting            triclinic
loop_
_symmetry_equiv_pos_as_xyz
  x,y,z
_cell_length_a                    33.0087
_cell_length_b                    35.6737
_cell_length_c                    25.5412
_cell_angle_alpha                 90.0000
_cell_angle_beta                  90.0000
_cell_angle_gamma                 90.0000
loop_
_atom_site_label
_atom_site_type_symbol
_atom_site_fract_x
_atom_site_fract_y
_atom_site_fract_z
_atom_site_U_iso_or_equiv
_atom_site_adp_type
_atom_site_occupancy
Fe1    Fe    0.00022   0.00085   0.01135   0.00000  Uiso   1.00
Fe2    Fe    0.24936   0.16380   0.51109   0.00000  Uiso   1.00
Fe3    Fe    0.00136   0.32986   0.26283   0.00000  Uiso   1.00
Fe4    Fe    0.00138   0.33049   0.01216   0.00000  Uiso   1.00
Fe5    Fe    0.00220   0.32869   0.38751   0.00000  Uiso   1.00
Fe6    Fe    0.00211   0.33047   0.13759   0.00000  Uiso   1.00
Fe7    Fe    0.00097   0.33019   0.88673   0.00000  Uiso   1.00
Fe8    Fe    0.00222   0.32989   0.51293   0.00000  Uiso   1.00
Fe9    Fe    0.00101   0.32734   0.63775   0.00000  Uiso   1.00
Fe10   Fe    0.00112   0.32944   0.76228   0.00000  Uiso   1.00
Fe11   Fe    0.24978   0.49979   0.26417   0.00000  Uiso   1.00
Fe12   Fe    0.24792   0.50186   0.01289   0.00000  Uiso   1.00
Fe13   Fe    0.24900   0.50093   0.13732   0.00000  Uiso   1.00
Fe14   Fe    0.24978   0.50160   0.76206   0.00000  Uiso   1.00
Fe15   Fe    0.24738   0.50403   0.88628   0.00000  Uiso   1.00
Fe16   Fe    0.24847   0.83365   0.63977   0.00000  Uiso   1.00
Fe17   Fe    0.25113   0.16611   0.00989   0.00000  Uiso   1.00
Fe18   Fe    0.25194   0.16643   0.13675   0.00000  Uiso   1.00
Fe19   Fe    0.25268   0.16334   0.26135   0.00000  Uiso   1.00
Fe20   Fe    0.49957   0.00076   0.38764   0.00000  Uiso   1.00
Fe21   Fe    0.49736   0.00204   0.01296   0.00000  Uiso   1.00
Fe22   Fe    0.49854   0.00179   0.13945   0.00000  Uiso   1.00
Fe23   Fe    0.25043   0.16355   0.38560   0.00000  Uiso   1.00
Fe24   Fe    0.25048   0.16516   0.88568   0.00000  Uiso   1.00
Fe25   Fe    0.25165   0.16515   0.63784   0.00000  Uiso   1.00
Fe26   Fe    0.25001   0.16393   0.76169   0.00000  Uiso   1.00
Fe27   Fe    0.49915   0.00425   0.76485   0.00000  Uiso   1.00
Fe28   Fe    0.49883   0.00186   0.88946   0.00000  Uiso   1.00
Fe29   Fe    0.49851   0.33248   0.38600   0.00000  Uiso   1.00
Fe30   Fe    0.49845   0.33143   0.13670   0.00000  Uiso   1.00
Fe31   Fe    0.49842   0.33070   0.01258   0.00000  Uiso   1.00
Fe32   Fe    0.49962   0.33162   0.26083   0.00000  Uiso   1.00
Fe33   Fe    0.49907   0.33327   0.51012   0.00000  Uiso   1.00
Fe34   Fe    0.25054   0.49849   0.38855   0.00000  Uiso   1.00
Fe35   Fe    0.25089   0.49940   0.51384   0.00000  Uiso   1.00
Fe36   Fe    0.25082   0.50012   0.63837   0.00000  Uiso   1.00
Fe37   Fe    0.49971   0.66654   0.00970   0.00000  Uiso   1.00
Fe38   Fe    0.25177   0.83552   0.01322   0.00000  Uiso   1.00
Fe39   Fe    0.25114   0.83697   0.38779   0.00000  Uiso   1.00
Fe40   Fe    0.25014   0.83742   0.13768   0.00000  Uiso   1.00
Fe41   Fe    0.25136   0.83657   0.26239   0.00000  Uiso   1.00
Fe42   Fe    0.25006   0.83476   0.51478   0.00000  Uiso   1.00
Fe43   Fe    0.25350   0.83459   0.88828   0.00000  Uiso   1.00
Fe44   Fe    0.25090   0.83204   0.76334   0.00000  Uiso   1.00
Fe45   Fe    0.50028   0.00064   0.26445   0.00000  Uiso   1.00
Fe46   Fe    0.74837   0.16881   0.26313   0.00000  Uiso   1.00
Fe47   Fe    0.74993   0.16958   0.13860   0.00000  Uiso   1.00
Fe48   Fe    0.74826   0.16791   0.38649   0.00000  Uiso   1.00
Fe49   Fe    0.74912   0.16816   0.01300   0.00000  Uiso   1.00
Fe50   Fe    0.74992   0.16702   0.63574   0.00000  Uiso   1.00
Fe51   Fe    0.74946   0.16628   0.76135   0.00000  Uiso   1.00
Fe52   Fe    0.74893   0.16654   0.51286   0.00000  Uiso   1.00
Fe53   Fe    0.74851   0.16766   0.88811   0.00000  Uiso   1.00
Fe54   Fe    0.50104   0.00244   0.63813   0.00000  Uiso   1.00
Fe55   Fe    0.50205   0.00203   0.51222   0.00000  Uiso   1.00
Fe56   Fe    0.50115   0.33171   0.63285   0.00000  Uiso   1.00
Fe57   Fe    0.50159   0.33227   0.75939   0.00000  Uiso   1.00
Fe58   Fe    0.50067   0.32999   0.88420   0.00000  Uiso   1.00
Fe59   Fe    0.74910   0.49861   0.88649   0.00000  Uiso   1.00
Fe60   Fe    0.74849   0.49829   0.50915   0.00000  Uiso   1.00
Fe61   Fe    0.50031   0.66868   0.13486   0.00000  Uiso   1.00
Fe62   Fe    0.50243   0.67050   0.26058   0.00000  Uiso   1.00
Fe63   Fe    0.50184   0.66878   0.38671   0.00000  Uiso   1.00
Fe64   Fe    0.50002   0.66223   0.88486   0.00000  Uiso   1.00
Fe65   Fe    0.50049   0.66701   0.51209   0.00000  Uiso   1.00
Fe66   Fe    0.50206   0.66469   0.63711   0.00000  Uiso   1.00
Fe67   Fe    0.50147   0.66478   0.75993   0.00000  Uiso   1.00
Fe68   Fe    0.74653   0.83588   0.01602   0.00000  Uiso   1.00
Fe69   Fe    0.74925   0.83653   0.13999   0.00000  Uiso   1.00
Fe70   Fe    0.74866   0.83524   0.51533   0.00000  Uiso   1.00
Fe71   Fe    0.74760   0.83613   0.64051   0.00000  Uiso   1.00
Fe72   Fe    0.74711   0.83634   0.76617   0.00000  Uiso   1.00
Fe73   Fe    0.74661   0.83656   0.89120   0.00000  Uiso   1.00
Fe74   Fe    0.99964   0.00240   0.26293   0.00000  Uiso   1.00
Fe75   Fe    0.99957   0.00065   0.13796   0.00000  Uiso   1.00
Fe76   Fe    0.99941   0.00026   0.38821   0.00000  Uiso   1.00
Fe77   Fe    0.99852   0.00003   0.76261   0.00000  Uiso   1.00
Fe78   Fe    0.99997   0.00034   0.88599   0.00000  Uiso   1.00
Fe79   Fe    0.75133   0.49737   0.25967   0.00000  Uiso   1.00
Fe80   Fe    0.75064   0.49611   0.01244   0.00000  Uiso   1.00
Fe81   Fe    0.75118   0.49728   0.13606   0.00000  Uiso   1.00
Fe82   Fe    0.75105   0.49826   0.38346   0.00000  Uiso   1.00
Fe83   Fe    0.75089   0.49785   0.75997   0.00000  Uiso   1.00
Fe84   Fe    0.75016   0.49805   0.63552   0.00000  Uiso   1.00
Fe85   Fe    0.99782   0.66602   0.13784   0.00000  Uiso   1.00
Fe86   Fe    0.99963   0.66766   0.26373   0.00000  Uiso   1.00
Fe87   Fe    0.99988   0.66676   0.38894   0.00000  Uiso   1.00
Fe88   Fe    0.99883   0.67001   0.01194   0.00000  Uiso   1.00
Fe89   Fe    0.99798   0.66780   0.51330   0.00000  Uiso   1.00
Fe90   Fe    0.99789   0.66941   0.63743   0.00000  Uiso   1.00
Fe91   Fe    0.99931   0.67056   0.88592   0.00000  Uiso   1.00
Fe92   Fe    0.99843   0.67072   0.76088   0.00000  Uiso   1.00
Fe93   Fe    0.75048   0.83370   0.26556   0.00000  Uiso   1.00
Fe94   Fe    0.75092   0.83582   0.39171   0.00000  Uiso   1.00
Fe95   Fe    0.99752   0.99935   0.63848   0.00000  Uiso   1.00
Fe96   Fe    0.99843   0.99868   0.51324   0.00000  Uiso   1.00
I97    I     0.11632   0.15540   0.09925   0.00000  Uiso   1.00
I98    I     0.11016   0.15589   0.34201   0.00000  Uiso   1.00
I99    I     0.12180   0.16066   0.59132   0.00000  Uiso   1.00
I100   I     0.11520   0.15481   0.84670   0.00000  Uiso   1.00
I101   I     0.13743   0.32898   0.22291   0.00000  Uiso   1.00
I102   I     0.13976   0.32430   0.46929   0.00000  Uiso   1.00
I103   I     0.13794   0.32152   0.72509   0.00000  Uiso   1.00
I104   I     0.13609   0.32558   0.97560   0.00000  Uiso   1.00
I105   I     0.11018   0.48899   0.09888   0.00000  Uiso   1.00
I106   I     0.11146   0.48807   0.35470   0.00000  Uiso   1.00
I107   I     0.11497   0.49400   0.59981   0.00000  Uiso   1.00
I108   I     0.12019   0.49238   0.84539   0.00000  Uiso   1.00
I109   I     0.13504   0.65882   0.23216   0.00000  Uiso   1.00
I110   I     0.13015   0.66209   0.47031   0.00000  Uiso   1.00
I111   I     0.13288   0.66521   0.71774   0.00000  Uiso   1.00
I112   I     0.13902   0.66384   0.97690   0.00000  Uiso   1.00
I113   I     0.11547   0.82635   0.09821   0.00000  Uiso   1.00
I114   I     0.11361   0.82673   0.34146   0.00000  Uiso   1.00
I115   I     0.12943   0.99591   0.22045   0.00000  Uiso   1.00
I116   I     0.12976   0.99396   0.47134   0.00000  Uiso   1.00
I117   I     0.11613   0.82455   0.60229   0.00000  Uiso   1.00
I118   I     0.11792   0.82296   0.84207   0.00000  Uiso   1.00
I119   I     0.13470   0.99582   0.96877   0.00000  Uiso   1.00
I120   I     0.13695   0.98740   0.72925   0.00000  Uiso   1.00
I121   I     0.38507   0.18087   0.22633   0.00000  Uiso   1.00
I122   I     0.38807   0.17666   0.47283   0.00000  Uiso   1.00
I123   I     0.36593   0.00909   0.34837   0.00000  Uiso   1.00
I124   I     0.36735   0.01120   0.09396   0.00000  Uiso   1.00
I125   I     0.36139   0.01171   0.60015   0.00000  Uiso   1.00
I126   I     0.38330   0.16921   0.72066   0.00000  Uiso   1.00
I127   I     0.39182   0.18009   0.97220   0.00000  Uiso   1.00
I128   I     0.36885   0.00622   0.84283   0.00000  Uiso   1.00
I129   I     0.36226   0.33967   0.09248   0.00000  Uiso   1.00
I130   I     0.35872   0.34069   0.35106   0.00000  Uiso   1.00
I131   I     0.36031   0.34228   0.59875   0.00000  Uiso   1.00
I132   I     0.36626   0.33776   0.84592   0.00000  Uiso   1.00
I133   I     0.38190   0.50781   0.22135   0.00000  Uiso   1.00
I134   I     0.39124   0.50690   0.47370   0.00000  Uiso   1.00
I135   I     0.38690   0.50539   0.72260   0.00000  Uiso   1.00
I136   I     0.37940   0.50851   0.97422   0.00000  Uiso   1.00
I137   I     0.36655   0.67841   0.10356   0.00000  Uiso   1.00
I138   I     0.36444   0.67515   0.34816   0.00000  Uiso   1.00
I139   I     0.36647   0.67480   0.60025   0.00000  Uiso   1.00
I140   I     0.36993   0.66553   0.83777   0.00000  Uiso   1.00
I141   I     0.38301   0.84207   0.48570   0.00000  Uiso   1.00
I142   I     0.38926   0.85019   0.22631   0.00000  Uiso   1.00
I143   I     0.38738   0.84161   0.96748   0.00000  Uiso   1.00
I144   I     0.38799   0.84056   0.71901   0.00000  Uiso   1.00
I145   I     0.61188   0.15151   0.10772   0.00000  Uiso   1.00
I146   I     0.61063   0.15486   0.35026   0.00000  Uiso   1.00
I147   I     0.61415   0.16288   0.58906   0.00000  Uiso   1.00
I148   I     0.61884   0.15883   0.84696   0.00000  Uiso   1.00
I149   I     0.63722   0.32200   0.22412   0.00000  Uiso   1.00
I150   I     0.63013   0.32763   0.46595   0.00000  Uiso   1.00
I151   I     0.63663   0.32596   0.72113   0.00000  Uiso   1.00
I152   I     0.63274   0.31609   0.97597   0.00000  Uiso   1.00
I153   I     0.60873   0.48618   0.10308   0.00000  Uiso   1.00
I154   I     0.61425   0.49184   0.34630   0.00000  Uiso   1.00
I155   I     0.61225   0.49076   0.59376   0.00000  Uiso   1.00
I156   I     0.61090   0.49391   0.84468   0.00000  Uiso   1.00
I157   I     0.64241   0.66149   0.22041   0.00000  Uiso   1.00
I158   I     0.63519   0.65657   0.47938   0.00000  Uiso   1.00
I159   I     0.63664   0.65824   0.72501   0.00000  Uiso   1.00
I160   I     0.63697   0.66038   0.97410   0.00000  Uiso   1.00
I161   I     0.61641   0.82599   0.09901   0.00000  Uiso   1.00
I162   I     0.61600   0.81837   0.36289   0.00000  Uiso   1.00
I163   I     0.63747   0.98833   0.23377   0.00000  Uiso   1.00
I164   I     0.63337   0.99182   0.46456   0.00000  Uiso   1.00
I165   I     0.61018   0.83193   0.59517   0.00000  Uiso   1.00
I166   I     0.61230   0.82410   0.85554   0.00000  Uiso   1.00
I167   I     0.63696   0.98980   0.97250   0.00000  Uiso   1.00
I168   I     0.63772   0.98931   0.72942   0.00000  Uiso   1.00
I169   I     0.88847   0.17982   0.22389   0.00000  Uiso   1.00
I170   I     0.88965   0.17414   0.47289   0.00000  Uiso   1.00
I171   I     0.86097   0.01077   0.35330   0.00000  Uiso   1.00
I172   I     0.86916   0.00182   0.09166   0.00000  Uiso   1.00
I173   I     0.87020   0.01182   0.85207   0.00000  Uiso   1.00
I174   I     0.88541   0.17675   0.72426   0.00000  Uiso   1.00
I175   I     0.88764   0.17626   0.97461   0.00000  Uiso   1.00
I176   I     0.86028   0.01165   0.59965   0.00000  Uiso   1.00
I177   I     0.86560   0.34069   0.09944   0.00000  Uiso   1.00
I178   I     0.86590   0.34527   0.35207   0.00000  Uiso   1.00
I179   I     0.86275   0.33732   0.59496   0.00000  Uiso   1.00
I180   I     0.87001   0.34105   0.85000   0.00000  Uiso   1.00
I181   I     0.88940   0.50229   0.21981   0.00000  Uiso   1.00
I182   I     0.89657   0.51075   0.47512   0.00000  Uiso   1.00
I183   I     0.89016   0.50567   0.71862   0.00000  Uiso   1.00
I184   I     0.88878   0.50961   0.97660   0.00000  Uiso   1.00
I185   I     0.85996   0.67542   0.10553   0.00000  Uiso   1.00
I186   I     0.86156   0.67000   0.34322   0.00000  Uiso   1.00
I187   I     0.85918   0.67969   0.60010   0.00000  Uiso   1.00
I188   I     0.86355   0.66910   0.84085   0.00000  Uiso   1.00
I189   I     0.87964   0.84381   0.47714   0.00000  Uiso   1.00
I190   I     0.88527   0.84312   0.22958   0.00000  Uiso   1.00
I191   I     0.87972   0.83795   0.97377   0.00000  Uiso   1.00
I192   I     0.88025   0.84599   0.73053   0.00000  Uiso   1.00
H193   H     0.02324   0.04175   0.45471   0.00000  Uiso   1.00
H194   H     0.11232   0.06023   0.15543   0.00000  Uiso   1.00
H195   H     0.17682   0.08698   0.15723   0.00000  Uiso   1.00
H196   H     0.10365   0.06330   0.40348   0.00000  Uiso   1.00
H197   H     0.17219   0.08388   0.40773   0.00000  Uiso   1.00
H198   H     0.02285   0.04447   0.19933   0.00000  Uiso   1.00
H199   H     0.19662   0.04844   0.24760   0.00000  Uiso   1.00
H200   H     0.10751   0.05211   0.65872   0.00000  Uiso   1.00
H201   H     0.17005   0.08258   0.66236   0.00000  Uiso   1.00
H202   H     0.10350   0.06561   0.89694   0.00000  Uiso   1.00
H203   H     0.16845   0.08943   0.90707   0.00000  Uiso   1.00
H204   H     0.19980   0.04689   0.75325   0.00000  Uiso   1.00
H205   H     0.00933   0.04577   0.95097   0.00000  Uiso   1.00
H206   H     0.02530   0.03789   0.69706   0.00000  Uiso   1.00
H207   H     0.19653   0.04941   0.50305   0.00000  Uiso   1.00
H208   H     0.20036   0.04951   0.99901   0.00000  Uiso   1.00
H209   H     0.22820   0.20474   0.32650   0.00000  Uiso   1.00
H210   H     0.01219   0.37692   0.20146   0.00000  Uiso   1.00
H211   H     0.04794   0.21127   0.37889   0.00000  Uiso   1.00
H212   H     0.14520   0.21904   0.02758   0.00000  Uiso   1.00
H213   H     0.08501   0.25289   0.02868   0.00000  Uiso   1.00
H214   H     0.01811   0.37353   0.45023   0.00000  Uiso   1.00
H215   H     0.19884   0.38079   0.00610   0.00000  Uiso   1.00
H216   H     0.07862   0.24999   0.28667   0.00000  Uiso   1.00
H217   H     0.20198   0.38352   0.25727   0.00000  Uiso   1.00
H218   H     0.05025   0.21423   0.12707   0.00000  Uiso   1.00
H219   H     0.14624   0.21875   0.27633   0.00000  Uiso   1.00
H220   H     0.22847   0.20789   0.07272   0.00000  Uiso   1.00
H221   H     0.10692   0.38723   0.40462   0.00000  Uiso   1.00
H222   H     0.10613   0.39287   0.15802   0.00000  Uiso   1.00
H223   H     0.19807   0.38771   0.49993   0.00000  Uiso   1.00
H224   H     0.14738   0.22269   0.77696   0.00000  Uiso   1.00
H225   H     0.22681   0.20862   0.82203   0.00000  Uiso   1.00
H226   H     0.09050   0.25304   0.53195   0.00000  Uiso   1.00
H227   H     0.05043   0.21463   0.87820   0.00000  Uiso   1.00
H228   H     0.19310   0.39090   0.74618   0.00000  Uiso   1.00
H229   H     0.10644   0.38720   0.90623   0.00000  Uiso   1.00
H230   H     0.07933   0.25162   0.77654   0.00000  Uiso   1.00
H231   H     0.05452   0.20968   0.62377   0.00000  Uiso   1.00
H232   H     0.15160   0.22443   0.51444   0.00000  Uiso   1.00
H233   H     0.02429   0.37059   0.69835   0.00000  Uiso   1.00
H234   H     0.11082   0.38931   0.65636   0.00000  Uiso   1.00
H235   H     0.02410   0.37304   0.94851   0.00000  Uiso   1.00
H236   H     0.22341   0.20789   0.57468   0.00000  Uiso   1.00
H237   H     0.05032   0.54712   0.12473   0.00000  Uiso   1.00
H238   H     0.13877   0.56035   0.03157   0.00000  Uiso   1.00
H239   H     0.22990   0.54286   0.32552   0.00000  Uiso   1.00
H240   H     0.05187   0.55323   0.37751   0.00000  Uiso   1.00
H241   H     0.13942   0.55713   0.28216   0.00000  Uiso   1.00
H242   H     0.16840   0.42463   0.15703   0.00000  Uiso   1.00
H243   H     0.16818   0.42459   0.40883   0.00000  Uiso   1.00
H244   H     0.23004   0.54748   0.07591   0.00000  Uiso   1.00
H245   H     0.07516   0.58513   0.28303   0.00000  Uiso   1.00
H246   H     0.07372   0.58677   0.02995   0.00000  Uiso   1.00
H247   H     0.05091   0.54786   0.62935   0.00000  Uiso   1.00
H248   H     0.23226   0.54696   0.57554   0.00000  Uiso   1.00
H249   H     0.14313   0.55810   0.53208   0.00000  Uiso   1.00
H250   H     0.05099   0.55398   0.87350   0.00000  Uiso   1.00
H251   H     0.14834   0.56449   0.77208   0.00000  Uiso   1.00
H252   H     0.16995   0.41985   0.90910   0.00000  Uiso   1.00
H253   H     0.17153   0.41824   0.66092   0.00000  Uiso   1.00
H254   H     0.22763   0.54651   0.82193   0.00000  Uiso   1.00
H255   H     0.08513   0.59012   0.53495   0.00000  Uiso   1.00
H256   H     0.08331   0.59023   0.78240   0.00000  Uiso   1.00
H257   H     0.10684   0.72545   0.15749   0.00000  Uiso   1.00
H258   H     0.17176   0.75802   0.15983   0.00000  Uiso   1.00
H259   H     0.01903   0.71195   0.20095   0.00000  Uiso   1.00
H260   H     0.09868   0.73545   0.40138   0.00000  Uiso   1.00
H261   H     0.16187   0.76646   0.40460   0.00000  Uiso   1.00
H262   H     0.01029   0.71273   0.45018   0.00000  Uiso   1.00
H263   H     0.20050   0.71333   0.26357   0.00000  Uiso   1.00
H264   H     0.20191   0.71641   0.01020   0.00000  Uiso   1.00
H265   H     0.19592   0.71981   0.49803   0.00000  Uiso   1.00
H266   H     0.10010   0.73404   0.64768   0.00000  Uiso   1.00
H267   H     0.16681   0.75685   0.65723   0.00000  Uiso   1.00
H268   H     0.02658   0.71149   0.69888   0.00000  Uiso   1.00
H269   H     0.10537   0.72827   0.90341   0.00000  Uiso   1.00
H270   H     0.17079   0.75339   0.91322   0.00000  Uiso   1.00
H271   H     0.02104   0.71320   0.94968   0.00000  Uiso   1.00
H272   H     0.19966   0.71863   0.75561   0.00000  Uiso   1.00
H273   H     0.05069   0.87923   0.13436   0.00000  Uiso   1.00
H274   H     0.14109   0.88990   0.02480   0.00000  Uiso   1.00
H275   H     0.07924   0.91988   0.02691   0.00000  Uiso   1.00
H276   H     0.05108   0.88005   0.37666   0.00000  Uiso   1.00
H277   H     0.14466   0.89826   0.27780   0.00000  Uiso   1.00
H278   H     0.08666   0.92918   0.28137   0.00000  Uiso   1.00
H279   H     0.23197   0.88223   0.07411   0.00000  Uiso   1.00
H280   H     0.22241   0.87523   0.32356   0.00000  Uiso   1.00
H281   H     0.04976   0.87868   0.63025   0.00000  Uiso   1.00
H282   H     0.14091   0.89190   0.52764   0.00000  Uiso   1.00
H283   H     0.08095   0.92278   0.52890   0.00000  Uiso   1.00
H284   H     0.05137   0.88418   0.87028   0.00000  Uiso   1.00
H285   H     0.14228   0.89336   0.78061   0.00000  Uiso   1.00
H286   H     0.07358   0.91592   0.78308   0.00000  Uiso   1.00
H287   H     0.22488   0.87350   0.82640   0.00000  Uiso   1.00
H288   H     0.23781   0.88239   0.57624   0.00000  Uiso   1.00
H289   H     0.28430   0.12982   0.45012   0.00000  Uiso   1.00
H290   H     0.35796   0.10919   0.14706   0.00000  Uiso   1.00
H291   H     0.42446   0.08721   0.15941   0.00000  Uiso   1.00
H292   H     0.26608   0.12046   0.19660   0.00000  Uiso   1.00
H293   H     0.45528   0.12171   0.25613   0.00000  Uiso   1.00
H294   H     0.35864   0.11287   0.40578   0.00000  Uiso   1.00
H295   H     0.41761   0.07407   0.40084   0.00000  Uiso   1.00
H296   H     0.45228   0.12483   0.00315   0.00000  Uiso   1.00
H297   H     0.34960   0.09511   0.64301   0.00000  Uiso   1.00
H298   H     0.42180   0.07988   0.65508   0.00000  Uiso   1.00
H299   H     0.27996   0.12598   0.95148   0.00000  Uiso   1.00
H300   H     0.45131   0.12257   0.76037   0.00000  Uiso   1.00
H301   H     0.35640   0.11243   0.90984   0.00000  Uiso   1.00
H302   H     0.42304   0.08265   0.91442   0.00000  Uiso   1.00
H303   H     0.27707   0.12105   0.69997   0.00000  Uiso   1.00
H304   H     0.44940   0.11801   0.50177   0.00000  Uiso   1.00
H305   H     0.39465   0.26963   0.02204   0.00000  Uiso   1.00
H306   H     0.33153   0.24380   0.02927   0.00000  Uiso   1.00
H307   H     0.48145   0.28634   0.07596   0.00000  Uiso   1.00
H308   H     0.29775   0.28378   0.13178   0.00000  Uiso   1.00
H309   H     0.39069   0.27726   0.28216   0.00000  Uiso   1.00
H310   H     0.32614   0.24754   0.28562   0.00000  Uiso   1.00
H311   H     0.30169   0.28014   0.37651   0.00000  Uiso   1.00
H312   H     0.47256   0.29075   0.32736   0.00000  Uiso   1.00
H313   H     0.39825   0.27175   0.52512   0.00000  Uiso   1.00
H314   H     0.33653   0.23734   0.52886   0.00000  Uiso   1.00
H315   H     0.29549   0.28422   0.63608   0.00000  Uiso   1.00
H316   H     0.39517   0.26969   0.77659   0.00000  Uiso   1.00
H317   H     0.33183   0.24154   0.78077   0.00000  Uiso   1.00
H318   H     0.30199   0.27779   0.87276   0.00000  Uiso   1.00
H319   H     0.47469   0.29099   0.56939   0.00000  Uiso   1.00
H320   H     0.47994   0.28623   0.82305   0.00000  Uiso   1.00
H321   H     0.41827   0.41149   0.40621   0.00000  Uiso   1.00
H322   H     0.28134   0.46101   0.45338   0.00000  Uiso   1.00
H323   H     0.26956   0.45525   0.20241   0.00000  Uiso   1.00
H324   H     0.34853   0.43935   0.15141   0.00000  Uiso   1.00
H325   H     0.44836   0.45654   0.25525   0.00000  Uiso   1.00
H326   H     0.33158   0.57706   0.28296   0.00000  Uiso   1.00
H327   H     0.35569   0.44341   0.40529   0.00000  Uiso   1.00
H328   H     0.32429   0.58020   0.03056   0.00000  Uiso   1.00
H329   H     0.41592   0.40478   0.15198   0.00000  Uiso   1.00
H330   H     0.44636   0.45019   0.00425   0.00000  Uiso   1.00
H331   H     0.45006   0.44672   0.49713   0.00000  Uiso   1.00
H332   H     0.33066   0.57834   0.52918   0.00000  Uiso   1.00
H333   H     0.27976   0.46194   0.70057   0.00000  Uiso   1.00
H334   H     0.35938   0.43701   0.65374   0.00000  Uiso   1.00
H335   H     0.44807   0.44991   0.75001   0.00000  Uiso   1.00
H336   H     0.35506   0.44186   0.90511   0.00000  Uiso   1.00
H337   H     0.26921   0.45855   0.94931   0.00000  Uiso   1.00
H338   H     0.41762   0.40455   0.90871   0.00000  Uiso   1.00
H339   H     0.33636   0.57145   0.77939   0.00000  Uiso   1.00
H340   H     0.41855   0.40373   0.65072   0.00000  Uiso   1.00
H341   H     0.39775   0.59755   0.77175   0.00000  Uiso   1.00
H342   H     0.48594   0.62670   0.32221   0.00000  Uiso   1.00
H343   H     0.36434   0.79141   0.15703   0.00000  Uiso   1.00
H344   H     0.42582   0.75279   0.15892   0.00000  Uiso   1.00
H345   H     0.39653   0.60716   0.27844   0.00000  Uiso   1.00
H346   H     0.48129   0.62349   0.07114   0.00000  Uiso   1.00
H347   H     0.35837   0.77755   0.39929   0.00000  Uiso   1.00
H348   H     0.41864   0.74643   0.40079   0.00000  Uiso   1.00
H349   H     0.28041   0.79748   0.44820   0.00000  Uiso   1.00
H350   H     0.30119   0.61957   0.12823   0.00000  Uiso   1.00
H351   H     0.30104   0.61321   0.37442   0.00000  Uiso   1.00
H352   H     0.46236   0.79744   0.25859   0.00000  Uiso   1.00
H353   H     0.38757   0.61168   0.03083   0.00000  Uiso   1.00
H354   H     0.44972   0.78216   0.00208   0.00000  Uiso   1.00
H355   H     0.45471   0.78476   0.75676   0.00000  Uiso   1.00
H356   H     0.41658   0.74147   0.66234   0.00000  Uiso   1.00
H357   H     0.48483   0.61749   0.82121   0.00000  Uiso   1.00
H358   H     0.30191   0.61134   0.87094   0.00000  Uiso   1.00
H359   H     0.39484   0.61081   0.52381   0.00000  Uiso   1.00
H360   H     0.48097   0.62056   0.57220   0.00000  Uiso   1.00
H361   H     0.41758   0.73943   0.90686   0.00000  Uiso   1.00
H362   H     0.26345   0.78822   0.95331   0.00000  Uiso   1.00
H363   H     0.30018   0.62126   0.62968   0.00000  Uiso   1.00
H364   H     0.35157   0.76938   0.65897   0.00000  Uiso   1.00
H365   H     0.35633   0.77589   0.90122   0.00000  Uiso   1.00
H366   H     0.26529   0.78717   0.69561   0.00000  Uiso   1.00
H367   H     0.44553   0.78743   0.50692   0.00000  Uiso   1.00
H368   H     0.48356   0.95513   0.32793   0.00000  Uiso   1.00
H369   H     0.39524   0.93989   0.02759   0.00000  Uiso   1.00
H370   H     0.33011   0.91021   0.02893   0.00000  Uiso   1.00
H371   H     0.47604   0.95990   0.07411   0.00000  Uiso   1.00
H372   H     0.30134   0.95620   0.12463   0.00000  Uiso   1.00
H373   H     0.38933   0.94851   0.28242   0.00000  Uiso   1.00
H374   H     0.33181   0.92155   0.28515   0.00000  Uiso   1.00
H375   H     0.29406   0.95591   0.38219   0.00000  Uiso   1.00
H376   H     0.28284   0.80113   0.20015   0.00000  Uiso   1.00
H377   H     0.39309   0.94634   0.52943   0.00000  Uiso   1.00
H378   H     0.33146   0.91763   0.53517   0.00000  Uiso   1.00
H379   H     0.29609   0.95217   0.62785   0.00000  Uiso   1.00
H380   H     0.39794   0.94068   0.77357   0.00000  Uiso   1.00
H381   H     0.33142   0.90754   0.77552   0.00000  Uiso   1.00
H382   H     0.47867   0.95770   0.82525   0.00000  Uiso   1.00
H383   H     0.30447   0.94844   0.87294   0.00000  Uiso   1.00
H384   H     0.48212   0.95760   0.57719   0.00000  Uiso   1.00
H385   H     0.69633   0.05299   0.49629   0.00000  Uiso   1.00
H386   H     0.61552   0.04487   0.15709   0.00000  Uiso   1.00
H387   H     0.67935   0.07444   0.16176   0.00000  Uiso   1.00
H388   H     0.51953   0.04629   0.44960   0.00000  Uiso   1.00
H389   H     0.60630   0.06040   0.40406   0.00000  Uiso   1.00
H390   H     0.66917   0.09063   0.40648   0.00000  Uiso   1.00
H391   H     0.69427   0.05249   0.24913   0.00000  Uiso   1.00
H392   H     0.52131   0.04304   0.20144   0.00000  Uiso   1.00
H393   H     0.52161   0.04294   0.95202   0.00000  Uiso   1.00
H394   H     0.60963   0.05326   0.65336   0.00000  Uiso   1.00
H395   H     0.67586   0.08180   0.65835   0.00000  Uiso   1.00
H396   H     0.59973   0.06143   0.90575   0.00000  Uiso   1.00
H397   H     0.66632   0.09343   0.90940   0.00000  Uiso   1.00
H398   H     0.52560   0.04620   0.70067   0.00000  Uiso   1.00
H399   H     0.70093   0.04386   0.75743   0.00000  Uiso   1.00
H400   H     0.69783   0.05418   0.99994   0.00000  Uiso   1.00
H401   H     0.70043   0.37562   0.25207   0.00000  Uiso   1.00
H402   H     0.64050   0.22031   0.03310   0.00000  Uiso   1.00
H403   H     0.57510   0.24515   0.03795   0.00000  Uiso   1.00
H404   H     0.60629   0.38598   0.15161   0.00000  Uiso   1.00
H405   H     0.72533   0.21186   0.32583   0.00000  Uiso   1.00
H406   H     0.52050   0.37587   0.19847   0.00000  Uiso   1.00
H407   H     0.64186   0.22606   0.27462   0.00000  Uiso   1.00
H408   H     0.57833   0.25787   0.28113   0.00000  Uiso   1.00
H409   H     0.52819   0.37222   0.44953   0.00000  Uiso   1.00
H410   H     0.54458   0.20865   0.13310   0.00000  Uiso   1.00
H411   H     0.55036   0.21853   0.37726   0.00000  Uiso   1.00
H412   H     0.73906   0.21265   0.07403   0.00000  Uiso   1.00
H413   H     0.60407   0.39384   0.40082   0.00000  Uiso   1.00
H414   H     0.70115   0.37387   0.00171   0.00000  Uiso   1.00
H415   H     0.69227   0.38675   0.49406   0.00000  Uiso   1.00
H416   H     0.51026   0.37552   0.94720   0.00000  Uiso   1.00
H417   H     0.58211   0.26117   0.52899   0.00000  Uiso   1.00
H418   H     0.56253   0.22918   0.61385   0.00000  Uiso   1.00
H419   H     0.64618   0.23154   0.52371   0.00000  Uiso   1.00
H420   H     0.64349   0.22631   0.77195   0.00000  Uiso   1.00
H421   H     0.57972   0.25714   0.76975   0.00000  Uiso   1.00
H422   H     0.52715   0.37642   0.69974   0.00000  Uiso   1.00
H423   H     0.70128   0.38079   0.75156   0.00000  Uiso   1.00
H424   H     0.54839   0.21324   0.87946   0.00000  Uiso   1.00
H425   H     0.60958   0.38623   0.90657   0.00000  Uiso   1.00
H426   H     0.60476   0.38913   0.65147   0.00000  Uiso   1.00
H427   H     0.73307   0.21175   0.57479   0.00000  Uiso   1.00
H428   H     0.72433   0.20817   0.82526   0.00000  Uiso   1.00
H429   H     0.55043   0.55221   0.12618   0.00000  Uiso   1.00
H430   H     0.64707   0.55339   0.03369   0.00000  Uiso   1.00
H431   H     0.55172   0.55093   0.37654   0.00000  Uiso   1.00
H432   H     0.64899   0.55712   0.27502   0.00000  Uiso   1.00
H433   H     0.66796   0.42253   0.40167   0.00000  Uiso   1.00
H434   H     0.72959   0.53807   0.07187   0.00000  Uiso   1.00
H435   H     0.67020   0.42295   0.15282   0.00000  Uiso   1.00
H436   H     0.58263   0.58756   0.03739   0.00000  Uiso   1.00
H437   H     0.72412   0.53860   0.32001   0.00000  Uiso   1.00
H438   H     0.58435   0.59291   0.28148   0.00000  Uiso   1.00
H439   H     0.55326   0.54806   0.62977   0.00000  Uiso   1.00
H440   H     0.64366   0.55906   0.52200   0.00000  Uiso   1.00
H441   H     0.66590   0.42377   0.64648   0.00000  Uiso   1.00
H442   H     0.55231   0.54871   0.88181   0.00000  Uiso   1.00
H443   H     0.73838   0.54259   0.82194   0.00000  Uiso   1.00
H444   H     0.65180   0.56735   0.76849   0.00000  Uiso   1.00
H445   H     0.58502   0.59078   0.78193   0.00000  Uiso   1.00
H446   H     0.73110   0.54458   0.57007   0.00000  Uiso   1.00
H447   H     0.67604   0.41929   0.91042   0.00000  Uiso   1.00
H448   H     0.57517   0.58369   0.53480   0.00000  Uiso   1.00
H449   H     0.60355   0.72964   0.15111   0.00000  Uiso   1.00
H450   H     0.66502   0.75820   0.16361   0.00000  Uiso   1.00
H451   H     0.51104   0.71384   0.45003   0.00000  Uiso   1.00
H452   H     0.61121   0.72081   0.40483   0.00000  Uiso   1.00
H453   H     0.67554   0.75021   0.41302   0.00000  Uiso   1.00
H454   H     0.51744   0.71667   0.19597   0.00000  Uiso   1.00
H455   H     0.70319   0.71814   0.25040   0.00000  Uiso   1.00
H456   H     0.70287   0.71791   0.00832   0.00000  Uiso   1.00
H457   H     0.60776   0.72583   0.65615   0.00000  Uiso   1.00
H458   H     0.66954   0.75574   0.65703   0.00000  Uiso   1.00
H459   H     0.52635   0.70692   0.69980   0.00000  Uiso   1.00
H460   H     0.60096   0.72348   0.90843   0.00000  Uiso   1.00
H461   H     0.66436   0.75553   0.91264   0.00000  Uiso   1.00
H462   H     0.51512   0.70942   0.94574   0.00000  Uiso   1.00
H463   H     0.69554   0.72051   0.75168   0.00000  Uiso   1.00
H464   H     0.69746   0.71902   0.50373   0.00000  Uiso   1.00
H465   H     0.55804   0.89162   0.12321   0.00000  Uiso   1.00
H466   H     0.64186   0.89612   0.02579   0.00000  Uiso   1.00
H467   H     0.57603   0.92558   0.03486   0.00000  Uiso   1.00
H468   H     0.55249   0.87755   0.38273   0.00000  Uiso   1.00
H469   H     0.64074   0.88809   0.28268   0.00000  Uiso   1.00
H470   H     0.57235   0.91643   0.28800   0.00000  Uiso   1.00
H471   H     0.72728   0.88223   0.07898   0.00000  Uiso   1.00
H472   H     0.74011   0.88138   0.32646   0.00000  Uiso   1.00
H473   H     0.54433   0.88390   0.63727   0.00000  Uiso   1.00
H474   H     0.65044   0.90531   0.52425   0.00000  Uiso   1.00
H475   H     0.58490   0.93060   0.53129   0.00000  Uiso   1.00
H476   H     0.54958   0.88478   0.87738   0.00000  Uiso   1.00
H477   H     0.63975   0.89459   0.78541   0.00000  Uiso   1.00
H478   H     0.57779   0.92538   0.79074   0.00000  Uiso   1.00
H479   H     0.71466   0.87141   0.82851   0.00000  Uiso   1.00
H480   H     0.73124   0.87718   0.57869   0.00000  Uiso   1.00
H481   H     0.77002   0.12486   0.20349   0.00000  Uiso   1.00
H482   H     0.85085   0.10572   0.15006   0.00000  Uiso   1.00
H483   H     0.91373   0.07087   0.15732   0.00000  Uiso   1.00
H484   H     0.76997   0.12367   0.44888   0.00000  Uiso   1.00
H485   H     0.95318   0.12174   0.25648   0.00000  Uiso   1.00
H486   H     0.85406   0.10680   0.40046   0.00000  Uiso   1.00
H487   H     0.91799   0.07661   0.40632   0.00000  Uiso   1.00
H488   H     0.94956   0.11928   0.00841   0.00000  Uiso   1.00
H489   H     0.94309   0.10863   0.49843   0.00000  Uiso   1.00
H490   H     0.85614   0.11276   0.65846   0.00000  Uiso   1.00
H491   H     0.91731   0.07613   0.65879   0.00000  Uiso   1.00
H492   H     0.95032   0.12221   0.75414   0.00000  Uiso   1.00
H493   H     0.86014   0.11155   0.90762   0.00000  Uiso   1.00
H494   H     0.93146   0.08878   0.91303   0.00000  Uiso   1.00
H495   H     0.77230   0.12493   0.69727   0.00000  Uiso   1.00
H496   H     0.76983   0.12577   0.94889   0.00000  Uiso   1.00
H497   H     0.89418   0.27657   0.03003   0.00000  Uiso   1.00
H498   H     0.82380   0.25174   0.03606   0.00000  Uiso   1.00
H499   H     0.97961   0.28931   0.07731   0.00000  Uiso   1.00
H500   H     0.79982   0.28803   0.13342   0.00000  Uiso   1.00
H501   H     0.89751   0.27612   0.27796   0.00000  Uiso   1.00
H502   H     0.83398   0.24439   0.28460   0.00000  Uiso   1.00
H503   H     0.80553   0.28143   0.37711   0.00000  Uiso   1.00
H504   H     0.97883   0.28506   0.32717   0.00000  Uiso   1.00
H505   H     0.89539   0.26744   0.52644   0.00000  Uiso   1.00
H506   H     0.83138   0.23868   0.52805   0.00000  Uiso   1.00
H507   H     0.79762   0.28333   0.63168   0.00000  Uiso   1.00
H508   H     0.89419   0.27741   0.78404   0.00000  Uiso   1.00
H509   H     0.83066   0.24012   0.78411   0.00000  Uiso   1.00
H510   H     0.80130   0.28314   0.87451   0.00000  Uiso   1.00
H511   H     0.98680   0.28427   0.81951   0.00000  Uiso   1.00
H512   H     0.98130   0.28498   0.57155   0.00000  Uiso   1.00
H513   H     0.76995   0.45274   0.19956   0.00000  Uiso   1.00
H514   H     0.85131   0.43578   0.15021   0.00000  Uiso   1.00
H515   H     0.83914   0.56466   0.27799   0.00000  Uiso   1.00
H516   H     0.94578   0.43969   0.24707   0.00000  Uiso   1.00
H517   H     0.83661   0.57280   0.03103   0.00000  Uiso   1.00
H518   H     0.85989   0.43977   0.40391   0.00000  Uiso   1.00
H519   H     0.77847   0.45890   0.44803   0.00000  Uiso   1.00
H520   H     0.92649   0.41993   0.41600   0.00000  Uiso   1.00
H521   H     0.91663   0.40194   0.15803   0.00000  Uiso   1.00
H522   H     0.95463   0.44976   0.00727   0.00000  Uiso   1.00
H523   H     0.90547   0.59243   0.26660   0.00000  Uiso   1.00
H524   H     0.76382   0.45121   0.69963   0.00000  Uiso   1.00
H525   H     0.82722   0.57885   0.53202   0.00000  Uiso   1.00
H526   H     0.84843   0.43035   0.63983   0.00000  Uiso   1.00
H527   H     0.83442   0.57086   0.77479   0.00000  Uiso   1.00
H528   H     0.94844   0.44263   0.75259   0.00000  Uiso   1.00
H529   H     0.91777   0.40920   0.91109   0.00000  Uiso   1.00
H530   H     0.85989   0.44846   0.90692   0.00000  Uiso   1.00
H531   H     0.77303   0.45699   0.94830   0.00000  Uiso   1.00
H532   H     0.95471   0.45162   0.50812   0.00000  Uiso   1.00
H533   H     0.91796   0.40720   0.65631   0.00000  Uiso   1.00
H534   H     0.89715   0.59854   0.76773   0.00000  Uiso   1.00
H535   H     0.99136   0.62133   0.33045   0.00000  Uiso   1.00
H536   H     0.97622   0.62337   0.07427   0.00000  Uiso   1.00
H537   H     0.85297   0.77417   0.15474   0.00000  Uiso   1.00
H538   H     0.91801   0.74286   0.15874   0.00000  Uiso   1.00
H539   H     0.94496   0.78255   0.25367   0.00000  Uiso   1.00
H540   H     0.79776   0.61560   0.13047   0.00000  Uiso   1.00
H541   H     0.91678   0.74082   0.41009   0.00000  Uiso   1.00
H542   H     0.76454   0.79170   0.45505   0.00000  Uiso   1.00
H543   H     0.85625   0.77751   0.41061   0.00000  Uiso   1.00
H544   H     0.80299   0.61137   0.37463   0.00000  Uiso   1.00
H545   H     0.76072   0.78715   0.19877   0.00000  Uiso   1.00
H546   H     0.89406   0.61082   0.02600   0.00000  Uiso   1.00
H547   H     0.94678   0.78204   0.00417   0.00000  Uiso   1.00
H548   H     0.77013   0.79402   0.95324   0.00000  Uiso   1.00
H549   H     0.91836   0.74473   0.65933   0.00000  Uiso   1.00
H550   H     0.77075   0.79433   0.70096   0.00000  Uiso   1.00
H551   H     0.94311   0.78621   0.75436   0.00000  Uiso   1.00
H552   H     0.85170   0.76902   0.90360   0.00000  Uiso   1.00
H553   H     0.91434   0.73884   0.90631   0.00000  Uiso   1.00
H554   H     0.99061   0.62356   0.57832   0.00000  Uiso   1.00
H555   H     0.85324   0.77840   0.65951   0.00000  Uiso   1.00
H556   H     0.98713   0.62527   0.82428   0.00000  Uiso   1.00
H557   H     0.79585   0.61141   0.88201   0.00000  Uiso   1.00
H558   H     0.79835   0.61715   0.62626   0.00000  Uiso   1.00
H559   H     0.89040   0.60853   0.52958   0.00000  Uiso   1.00
H560   H     0.94521   0.78367   0.50613   0.00000  Uiso   1.00
H561   H     0.89668   0.93583   0.02589   0.00000  Uiso   1.00
H562   H     0.83360   0.90768   0.03074   0.00000  Uiso   1.00
H563   H     0.98377   0.95661   0.32496   0.00000  Uiso   1.00
H564   H     0.80026   0.94937   0.12901   0.00000  Uiso   1.00
H565   H     0.89045   0.94418   0.28257   0.00000  Uiso   1.00
H566   H     0.82820   0.91732   0.28704   0.00000  Uiso   1.00
H567   H     0.79885   0.95619   0.38165   0.00000  Uiso   1.00
H568   H     0.97823   0.95831   0.07431   0.00000  Uiso   1.00
H569   H     0.96841   0.96426   0.82376   0.00000  Uiso   1.00
H570   H     0.89481   0.93743   0.52598   0.00000  Uiso   1.00
H571   H     0.82666   0.91089   0.53402   0.00000  Uiso   1.00
H572   H     0.80534   0.94854   0.62365   0.00000  Uiso   1.00
H573   H     0.89169   0.94662   0.78131   0.00000  Uiso   1.00
H574   H     0.82548   0.91982   0.78794   0.00000  Uiso   1.00
H575   H     0.80166   0.95427   0.87800   0.00000  Uiso   1.00
H576   H     0.96331   0.96196   0.57160   0.00000  Uiso   1.00
C577   C     0.17740   0.17757   0.44395   0.00000  Uiso   1.00
C578   C     0.18017   0.18322   0.19914   0.00000  Uiso   1.00
C579   C     0.12874   0.05751   0.12013   0.00000  Uiso   1.00
C580   C     0.16808   0.07100   0.12274   0.00000  Uiso   1.00
C581   C     0.14378   0.03328   0.03353   0.00000  Uiso   1.00
C582   C     0.18029   0.05262   0.03249   0.00000  Uiso   1.00
C583   C     0.07305   0.02392   0.07538   0.00000  Uiso   1.00
C584   C     0.11518   0.03729   0.07571   0.00000  Uiso   1.00
C585   C     0.22210   0.10371   0.07384   0.00000  Uiso   1.00
C586   C     0.19128   0.07576   0.07560   0.00000  Uiso   1.00
C587   C     0.12429   0.05602   0.37041   0.00000  Uiso   1.00
C588   C     0.16433   0.06855   0.37384   0.00000  Uiso   1.00
C589   C     0.14014   0.03070   0.28371   0.00000  Uiso   1.00
C590   C     0.17776   0.04791   0.28559   0.00000  Uiso   1.00
C591   C     0.07093   0.02108   0.32360   0.00000  Uiso   1.00
C592   C     0.11243   0.03518   0.32583   0.00000  Uiso   1.00
C593   C     0.22012   0.10002   0.32404   0.00000  Uiso   1.00
C594   C     0.18800   0.06865   0.32822   0.00000  Uiso   1.00
C595   C     0.10653   0.19335   0.40580   0.00000  Uiso   1.00
C596   C     0.11020   0.19459   0.15902   0.00000  Uiso   1.00
C597   C     0.13676   0.19618   0.44596   0.00000  Uiso   1.00
C598   C     0.13848   0.19825   0.20000   0.00000  Uiso   1.00
C599   C     0.17733   0.18309   0.94880   0.00000  Uiso   1.00
C600   C     0.17879   0.18630   0.69977   0.00000  Uiso   1.00
C601   C     0.12740   0.04965   0.62667   0.00000  Uiso   1.00
C602   C     0.16590   0.06729   0.62657   0.00000  Uiso   1.00
C603   C     0.13942   0.02993   0.53680   0.00000  Uiso   1.00
C604   C     0.17745   0.04842   0.53858   0.00000  Uiso   1.00
C605   C     0.07126   0.01692   0.57598   0.00000  Uiso   1.00
C606   C     0.11398   0.03159   0.58033   0.00000  Uiso   1.00
C607   C     0.21911   0.10097   0.57664   0.00000  Uiso   1.00
C608   C     0.19040   0.06898   0.58174   0.00000  Uiso   1.00
C609   C     0.12442   0.05771   0.86709   0.00000  Uiso   1.00
C610   C     0.16351   0.07254   0.87311   0.00000  Uiso   1.00
C611   C     0.14342   0.03041   0.78526   0.00000  Uiso   1.00
C612   C     0.17948   0.05002   0.78571   0.00000  Uiso   1.00
C613   C     0.07042   0.02201   0.82151   0.00000  Uiso   1.00
C614   C     0.11300   0.03707   0.82284   0.00000  Uiso   1.00
C615   C     0.22104   0.10072   0.82576   0.00000  Uiso   1.00
C616   C     0.19037   0.07099   0.82904   0.00000  Uiso   1.00
C617   C     0.10584   0.19066   0.91084   0.00000  Uiso   1.00
C618   C     0.13570   0.19715   0.95045   0.00000  Uiso   1.00
C619   C     0.11236   0.19609   0.65769   0.00000  Uiso   1.00
C620   C     0.12879   0.21811   0.48956   0.00000  Uiso   1.00
C621   C     0.12463   0.38758   0.12231   0.00000  Uiso   1.00
C622   C     0.14295   0.36523   0.28539   0.00000  Uiso   1.00
C623   C     0.07270   0.21498   0.15918   0.00000  Uiso   1.00
C624   C     0.17855   0.38504   0.28737   0.00000  Uiso   1.00
C625   C     0.03295   0.26743   0.19873   0.00000  Uiso   1.00
C626   C     0.06394   0.23721   0.20348   0.00000  Uiso   1.00
C627   C     0.12409   0.21806   0.24495   0.00000  Uiso   1.00
C628   C     0.08726   0.23397   0.24959   0.00000  Uiso   1.00
C629   C     0.07301   0.35191   0.07386   0.00000  Uiso   1.00
C630   C     0.11434   0.36660   0.07733   0.00000  Uiso   1.00
C631   C     0.07200   0.21414   0.40845   0.00000  Uiso   1.00
C632   C     0.17970   0.38362   0.03911   0.00000  Uiso   1.00
C633   C     0.14443   0.36359   0.03934   0.00000  Uiso   1.00
C634   C     0.03664   0.26751   0.45192   0.00000  Uiso   1.00
C635   C     0.06453   0.23612   0.45271   0.00000  Uiso   1.00
C636   C     0.12334   0.38849   0.37001   0.00000  Uiso   1.00
C637   C     0.07308   0.35113   0.32370   0.00000  Uiso   1.00
C638   C     0.11337   0.36781   0.32545   0.00000  Uiso   1.00
C639   C     0.09259   0.23532   0.49558   0.00000  Uiso   1.00
C640   C     0.12780   0.38271   0.87431   0.00000  Uiso   1.00
C641   C     0.14418   0.36543   0.53316   0.00000  Uiso   1.00
C642   C     0.12906   0.38461   0.62173   0.00000  Uiso   1.00
C643   C     0.07476   0.21243   0.65720   0.00000  Uiso   1.00
C644   C     0.17730   0.38689   0.78368   0.00000  Uiso   1.00
C645   C     0.03067   0.26246   0.69869   0.00000  Uiso   1.00
C646   C     0.06212   0.23376   0.70001   0.00000  Uiso   1.00
C647   C     0.12543   0.21900   0.74460   0.00000  Uiso   1.00
C648   C     0.08770   0.23473   0.74430   0.00000  Uiso   1.00
C649   C     0.07496   0.35052   0.57712   0.00000  Uiso   1.00
C650   C     0.11790   0.36557   0.57700   0.00000  Uiso   1.00
C651   C     0.17884   0.38783   0.53419   0.00000  Uiso   1.00
C652   C     0.07151   0.21428   0.91033   0.00000  Uiso   1.00
C653   C     0.14441   0.36239   0.78583   0.00000  Uiso   1.00
C654   C     0.03569   0.26793   0.95020   0.00000  Uiso   1.00
C655   C     0.06262   0.23753   0.95382   0.00000  Uiso   1.00
C656   C     0.07233   0.35206   0.82579   0.00000  Uiso   1.00
C657   C     0.11509   0.36412   0.82899   0.00000  Uiso   1.00
C658   C     0.12447   0.21578   0.99445   0.00000  Uiso   1.00
C659   C     0.13791   0.20104   0.70038   0.00000  Uiso   1.00
C660   C     0.08975   0.23726   0.99545   0.00000  Uiso   1.00
C661   C     0.21668   0.43689   0.33015   0.00000  Uiso   1.00
C662   C     0.15939   0.40720   0.37443   0.00000  Uiso   1.00
C663   C     0.18571   0.40733   0.33274   0.00000  Uiso   1.00
C664   C     0.10581   0.52862   0.16041   0.00000  Uiso   1.00
C665   C     0.07000   0.54952   0.15826   0.00000  Uiso   1.00
C666   C     0.17735   0.52152   0.19982   0.00000  Uiso   1.00
C667   C     0.13350   0.53344   0.20237   0.00000  Uiso   1.00
C668   C     0.06006   0.57277   0.20211   0.00000  Uiso   1.00
C669   C     0.12094   0.55340   0.24738   0.00000  Uiso   1.00
C670   C     0.08276   0.57008   0.24902   0.00000  Uiso   1.00
C671   C     0.21697   0.43805   0.07579   0.00000  Uiso   1.00
C672   C     0.10836   0.53209   0.41159   0.00000  Uiso   1.00
C673   C     0.07332   0.55455   0.41112   0.00000  Uiso   1.00
C674   C     0.17857   0.51948   0.45239   0.00000  Uiso   1.00
C675   C     0.13770   0.53498   0.45405   0.00000  Uiso   1.00
C676   C     0.06421   0.57586   0.45676   0.00000  Uiso   1.00
C677   C     0.15994   0.40735   0.12319   0.00000  Uiso   1.00
C678   C     0.18620   0.40833   0.07973   0.00000  Uiso   1.00
C679   C     0.12611   0.55624   0.49770   0.00000  Uiso   1.00
C680   C     0.16386   0.40211   0.87421   0.00000  Uiso   1.00
C681   C     0.21595   0.43980   0.82599   0.00000  Uiso   1.00
C682   C     0.10960   0.53285   0.65985   0.00000  Uiso   1.00
C683   C     0.07164   0.55151   0.66207   0.00000  Uiso   1.00
C684   C     0.17921   0.52232   0.69662   0.00000  Uiso   1.00
C685   C     0.13700   0.53805   0.69955   0.00000  Uiso   1.00
C686   C     0.06143   0.57411   0.70468   0.00000  Uiso   1.00
C687   C     0.12595   0.56041   0.74179   0.00000  Uiso   1.00
C688   C     0.08906   0.57508   0.74625   0.00000  Uiso   1.00
C689   C     0.21840   0.43749   0.57701   0.00000  Uiso   1.00
C690   C     0.10859   0.53263   0.90621   0.00000  Uiso   1.00
C691   C     0.07248   0.55222   0.90631   0.00000  Uiso   1.00
C692   C     0.17623   0.52361   0.94884   0.00000  Uiso   1.00
C693   C     0.13430   0.53862   0.95017   0.00000  Uiso   1.00
C694   C     0.05946   0.57428   0.94998   0.00000  Uiso   1.00
C695   C     0.16614   0.40381   0.62389   0.00000  Uiso   1.00
C696   C     0.18790   0.40744   0.82712   0.00000  Uiso   1.00
C697   C     0.18961   0.40735   0.57958   0.00000  Uiso   1.00
C698   C     0.08305   0.57230   0.99425   0.00000  Uiso   1.00
C699   C     0.08769   0.57237   0.50141   0.00000  Uiso   1.00
C700   C     0.11977   0.55683   0.99547   0.00000  Uiso   1.00
C701   C     0.12478   0.72622   0.12242   0.00000  Uiso   1.00
C702   C     0.16237   0.74347   0.12368   0.00000  Uiso   1.00
C703   C     0.14244   0.70251   0.03609   0.00000  Uiso   1.00
C704   C     0.18079   0.72064   0.04139   0.00000  Uiso   1.00
C705   C     0.06884   0.69160   0.07421   0.00000  Uiso   1.00
C706   C     0.11243   0.70574   0.07752   0.00000  Uiso   1.00
C707   C     0.21990   0.77187   0.07947   0.00000  Uiso   1.00
C708   C     0.18857   0.74304   0.08172   0.00000  Uiso   1.00
C709   C     0.11919   0.72903   0.37004   0.00000  Uiso   1.00
C710   C     0.15675   0.74626   0.37385   0.00000  Uiso   1.00
C711   C     0.14220   0.70015   0.29107   0.00000  Uiso   1.00
C712   C     0.17915   0.71909   0.29210   0.00000  Uiso   1.00
C713   C     0.07148   0.68750   0.32714   0.00000  Uiso   1.00
C714   C     0.11122   0.70621   0.32822   0.00000  Uiso   1.00
C715   C     0.21830   0.77580   0.32712   0.00000  Uiso   1.00
C716   C     0.18624   0.74514   0.33183   0.00000  Uiso   1.00
C717   C     0.02970   0.60275   0.20134   0.00000  Uiso   1.00
C718   C     0.03559   0.60539   0.45405   0.00000  Uiso   1.00
C719   C     0.12434   0.72624   0.61844   0.00000  Uiso   1.00
C720   C     0.16041   0.74287   0.62166   0.00000  Uiso   1.00
C721   C     0.13988   0.69981   0.53246   0.00000  Uiso   1.00
C722   C     0.17802   0.71939   0.53509   0.00000  Uiso   1.00
C723   C     0.06863   0.69224   0.57412   0.00000  Uiso   1.00
C724   C     0.11179   0.70652   0.57398   0.00000  Uiso   1.00
C725   C     0.21583   0.77273   0.57729   0.00000  Uiso   1.00
C726   C     0.18790   0.74105   0.57870   0.00000  Uiso   1.00
C727   C     0.12669   0.72146   0.87365   0.00000  Uiso   1.00
C728   C     0.16454   0.73984   0.87672   0.00000  Uiso   1.00
C729   C     0.14300   0.69951   0.78442   0.00000  Uiso   1.00
C730   C     0.18068   0.71762   0.78813   0.00000  Uiso   1.00
C731   C     0.07263   0.69154   0.82321   0.00000  Uiso   1.00
C732   C     0.11465   0.70602   0.82552   0.00000  Uiso   1.00
C733   C     0.22010   0.77001   0.82773   0.00000  Uiso   1.00
C734   C     0.19100   0.73923   0.83316   0.00000  Uiso   1.00
C735   C     0.03048   0.60520   0.70193   0.00000  Uiso   1.00
C736   C     0.03074   0.60724   0.94698   0.00000  Uiso   1.00
C737   C     0.10747   0.86546   0.16132   0.00000  Uiso   1.00
C738   C     0.07113   0.88460   0.16403   0.00000  Uiso   1.00
C739   C     0.17861   0.85740   0.19990   0.00000  Uiso   1.00
C740   C     0.13786   0.87222   0.20168   0.00000  Uiso   1.00
C741   C     0.03196   0.93774   0.20055   0.00000  Uiso   1.00
C742   C     0.06282   0.90970   0.20582   0.00000  Uiso   1.00
C743   C     0.12787   0.89352   0.24362   0.00000  Uiso   1.00
C744   C     0.09033   0.91136   0.24804   0.00000  Uiso   1.00
C745   C     0.10618   0.86417   0.40782   0.00000  Uiso   1.00
C746   C     0.06929   0.88292   0.41051   0.00000  Uiso   1.00
C747   C     0.17723   0.85627   0.44730   0.00000  Uiso   1.00
C748   C     0.13438   0.86753   0.44871   0.00000  Uiso   1.00
C749   C     0.02873   0.93611   0.44982   0.00000  Uiso   1.00
C750   C     0.05898   0.90551   0.45284   0.00000  Uiso   1.00
C751   C     0.08588   0.90542   0.49435   0.00000  Uiso   1.00
C752   C     0.12248   0.88680   0.49281   0.00000  Uiso   1.00
C753   C     0.10743   0.86085   0.66258   0.00000  Uiso   1.00
C754   C     0.07050   0.88116   0.66265   0.00000  Uiso   1.00
C755   C     0.17770   0.85538   0.70209   0.00000  Uiso   1.00
C756   C     0.13504   0.86609   0.70508   0.00000  Uiso   1.00
C757   C     0.02843   0.93523   0.70331   0.00000  Uiso   1.00
C758   C     0.05813   0.90331   0.70588   0.00000  Uiso   1.00
C759   C     0.12186   0.88605   0.74931   0.00000  Uiso   1.00
C760   C     0.08255   0.90254   0.74960   0.00000  Uiso   1.00
C761   C     0.10818   0.86253   0.90175   0.00000  Uiso   1.00
C762   C     0.07030   0.88251   0.90379   0.00000  Uiso   1.00
C763   C     0.17966   0.85474   0.94772   0.00000  Uiso   1.00
C764   C     0.13506   0.86659   0.94697   0.00000  Uiso   1.00
C765   C     0.03368   0.93711   0.94726   0.00000  Uiso   1.00
C766   C     0.06089   0.90523   0.94761   0.00000  Uiso   1.00
C767   C     0.12120   0.88452   0.99103   0.00000  Uiso   1.00
C768   C     0.08598   0.90360   0.99153   0.00000  Uiso   1.00
C769   C     0.39513   0.14065   0.03384   0.00000  Uiso   1.00
C770   C     0.43238   0.12135   0.03588   0.00000  Uiso   1.00
C771   C     0.32529   0.14926   0.07214   0.00000  Uiso   1.00
C772   C     0.36696   0.13620   0.07488   0.00000  Uiso   1.00
C773   C     0.47113   0.06797   0.07802   0.00000  Uiso   1.00
C774   C     0.44192   0.10040   0.08006   0.00000  Uiso   1.00
C775   C     0.38034   0.11781   0.11933   0.00000  Uiso   1.00
C776   C     0.41807   0.10364   0.12367   0.00000  Uiso   1.00
C777   C     0.39547   0.13857   0.28111   0.00000  Uiso   1.00
C778   C     0.43311   0.12002   0.28464   0.00000  Uiso   1.00
C779   C     0.32467   0.14847   0.32147   0.00000  Uiso   1.00
C780   C     0.36777   0.13655   0.32374   0.00000  Uiso   1.00
C781   C     0.47162   0.06627   0.32519   0.00000  Uiso   1.00
C782   C     0.44054   0.09523   0.32554   0.00000  Uiso   1.00
C783   C     0.37847   0.11533   0.36966   0.00000  Uiso   1.00
C784   C     0.41366   0.09496   0.36894   0.00000  Uiso   1.00
C785   C     0.39214   0.13465   0.53476   0.00000  Uiso   1.00
C786   C     0.42922   0.11625   0.53457   0.00000  Uiso   1.00
C787   C     0.32208   0.14416   0.57605   0.00000  Uiso   1.00
C788   C     0.36271   0.12610   0.57351   0.00000  Uiso   1.00
C789   C     0.47300   0.06564   0.57776   0.00000  Uiso   1.00
C790   C     0.43915   0.09469   0.57900   0.00000  Uiso   1.00
C791   C     0.37290   0.10607   0.61648   0.00000  Uiso   1.00
C792   C     0.41349   0.09455   0.62202   0.00000  Uiso   1.00
C793   C     0.39494   0.13763   0.78892   0.00000  Uiso   1.00
C794   C     0.43239   0.12009   0.79283   0.00000  Uiso   1.00
C795   C     0.32360   0.14642   0.82623   0.00000  Uiso   1.00
C796   C     0.36512   0.13201   0.82996   0.00000  Uiso   1.00
C797   C     0.47121   0.06666   0.82976   0.00000  Uiso   1.00
C798   C     0.43983   0.09502   0.83535   0.00000  Uiso   1.00
C799   C     0.37661   0.11473   0.87584   0.00000  Uiso   1.00
C800   C     0.41438   0.09587   0.87803   0.00000  Uiso   1.00
C801   C     0.37201   0.27834   0.24594   0.00000  Uiso   1.00
C802   C     0.33282   0.26296   0.25036   0.00000  Uiso   1.00
C803   C     0.35575   0.30335   0.16063   0.00000  Uiso   1.00
C804   C     0.31950   0.28299   0.16144   0.00000  Uiso   1.00
C805   C     0.42558   0.31445   0.20099   0.00000  Uiso   1.00
C806   C     0.38472   0.29636   0.20142   0.00000  Uiso   1.00
C807   C     0.28145   0.22816   0.20321   0.00000  Uiso   1.00
C808   C     0.30861   0.26147   0.20553   0.00000  Uiso   1.00
C809   C     0.35773   0.30010   0.40902   0.00000  Uiso   1.00
C810   C     0.32216   0.27950   0.40756   0.00000  Uiso   1.00
C811   C     0.42649   0.31494   0.45068   0.00000  Uiso   1.00
C812   C     0.38510   0.29950   0.45203   0.00000  Uiso   1.00
C813   C     0.28056   0.22739   0.44826   0.00000  Uiso   1.00
C814   C     0.31334   0.25548   0.45101   0.00000  Uiso   1.00
C815   C     0.37636   0.27671   0.49395   0.00000  Uiso   1.00
C816   C     0.46508   0.39576   0.32455   0.00000  Uiso   1.00
C817   C     0.46793   0.39587   0.07418   0.00000  Uiso   1.00
C818   C     0.33969   0.25551   0.49527   0.00000  Uiso   1.00
C819   C     0.37641   0.27543   0.74162   0.00000  Uiso   1.00
C820   C     0.33797   0.25758   0.74578   0.00000  Uiso   1.00
C821   C     0.35495   0.30200   0.65961   0.00000  Uiso   1.00
C822   C     0.31898   0.28158   0.66370   0.00000  Uiso   1.00
C823   C     0.42970   0.31058   0.69450   0.00000  Uiso   1.00
C824   C     0.38752   0.29653   0.69780   0.00000  Uiso   1.00
C825   C     0.28163   0.22864   0.70069   0.00000  Uiso   1.00
C826   C     0.31120   0.25806   0.70669   0.00000  Uiso   1.00
C827   C     0.35816   0.29642   0.90358   0.00000  Uiso   1.00
C828   C     0.32009   0.27814   0.90677   0.00000  Uiso   1.00
C829   C     0.42877   0.30649   0.94672   0.00000  Uiso   1.00
C830   C     0.38704   0.29317   0.94636   0.00000  Uiso   1.00
C831   C     0.28314   0.22859   0.94708   0.00000  Uiso   1.00
C832   C     0.30985   0.26018   0.95173   0.00000  Uiso   1.00
C833   C     0.46703   0.39437   0.82161   0.00000  Uiso   1.00
C834   C     0.37401   0.27650   0.99122   0.00000  Uiso   1.00
C835   C     0.47231   0.39801   0.57147   0.00000  Uiso   1.00
C836   C     0.33517   0.26226   0.99517   0.00000  Uiso   1.00
C837   C     0.37508   0.44878   0.37250   0.00000  Uiso   1.00
C838   C     0.41066   0.42837   0.37239   0.00000  Uiso   1.00
C839   C     0.28224   0.56342   0.45148   0.00000  Uiso   1.00
C840   C     0.33922   0.59445   0.24817   0.00000  Uiso   1.00
C841   C     0.43599   0.42765   0.32761   0.00000  Uiso   1.00
C842   C     0.31203   0.59268   0.45218   0.00000  Uiso   1.00
C843   C     0.39031   0.47029   0.03732   0.00000  Uiso   1.00
C844   C     0.42629   0.44828   0.03670   0.00000  Uiso   1.00
C845   C     0.31956   0.47965   0.07571   0.00000  Uiso   1.00
C846   C     0.36144   0.46435   0.07596   0.00000  Uiso   1.00
C847   C     0.43540   0.42414   0.07773   0.00000  Uiso   1.00
C848   C     0.37192   0.44294   0.12039   0.00000  Uiso   1.00
C849   C     0.40833   0.42436   0.12132   0.00000  Uiso   1.00
C850   C     0.28409   0.56281   0.20070   0.00000  Uiso   1.00
C851   C     0.39062   0.47131   0.28536   0.00000  Uiso   1.00
C852   C     0.42714   0.45219   0.28605   0.00000  Uiso   1.00
C853   C     0.32147   0.48140   0.32684   0.00000  Uiso   1.00
C854   C     0.36254   0.46955   0.32737   0.00000  Uiso   1.00
C855   C     0.33688   0.59543   0.49559   0.00000  Uiso   1.00
C856   C     0.31196   0.59317   0.20475   0.00000  Uiso   1.00
C857   C     0.27889   0.56706   0.94828   0.00000  Uiso   1.00
C858   C     0.41172   0.42474   0.87387   0.00000  Uiso   1.00
C859   C     0.43649   0.42350   0.82808   0.00000  Uiso   1.00
C860   C     0.31343   0.59305   0.70500   0.00000  Uiso   1.00
C861   C     0.36373   0.46350   0.82689   0.00000  Uiso   1.00
C862   C     0.39397   0.46701   0.53263   0.00000  Uiso   1.00
C863   C     0.42931   0.44632   0.53149   0.00000  Uiso   1.00
C864   C     0.37519   0.44256   0.86973   0.00000  Uiso   1.00
C865   C     0.32426   0.47973   0.57701   0.00000  Uiso   1.00
C866   C     0.36637   0.46543   0.57687   0.00000  Uiso   1.00
C867   C     0.43835   0.42470   0.57550   0.00000  Uiso   1.00
C868   C     0.37815   0.44271   0.61911   0.00000  Uiso   1.00
C869   C     0.41355   0.42415   0.62002   0.00000  Uiso   1.00
C870   C     0.28463   0.56392   0.70029   0.00000  Uiso   1.00
C871   C     0.39219   0.46890   0.78569   0.00000  Uiso   1.00
C872   C     0.42922   0.44874   0.78675   0.00000  Uiso   1.00
C873   C     0.32039   0.47949   0.82470   0.00000  Uiso   1.00
C874   C     0.34166   0.59016   0.74648   0.00000  Uiso   1.00
C875   C     0.30954   0.59488   0.95202   0.00000  Uiso   1.00
C876   C     0.33189   0.59736   0.99607   0.00000  Uiso   1.00
C877   C     0.35850   0.63280   0.40604   0.00000  Uiso   1.00
C878   C     0.35783   0.63769   0.16028   0.00000  Uiso   1.00
C879   C     0.42913   0.64527   0.20142   0.00000  Uiso   1.00
C880   C     0.38745   0.63227   0.20159   0.00000  Uiso   1.00
C881   C     0.37503   0.61233   0.49203   0.00000  Uiso   1.00
C882   C     0.42884   0.78419   0.03222   0.00000  Uiso   1.00
C883   C     0.32096   0.61336   0.40812   0.00000  Uiso   1.00
C884   C     0.46684   0.72972   0.07284   0.00000  Uiso   1.00
C885   C     0.43750   0.75964   0.07550   0.00000  Uiso   1.00
C886   C     0.38206   0.78889   0.12394   0.00000  Uiso   1.00
C887   C     0.41575   0.76547   0.12295   0.00000  Uiso   1.00
C888   C     0.42940   0.64833   0.44667   0.00000  Uiso   1.00
C889   C     0.38769   0.63209   0.44747   0.00000  Uiso   1.00
C890   C     0.43592   0.79025   0.28632   0.00000  Uiso   1.00
C891   C     0.32152   0.61637   0.16085   0.00000  Uiso   1.00
C892   C     0.47276   0.73392   0.32582   0.00000  Uiso   1.00
C893   C     0.44346   0.76537   0.32655   0.00000  Uiso   1.00
C894   C     0.38021   0.78298   0.36697   0.00000  Uiso   1.00
C895   C     0.41589   0.76407   0.36713   0.00000  Uiso   1.00
C896   C     0.37594   0.61095   0.24375   0.00000  Uiso   1.00
C897   C     0.35769   0.63279   0.90545   0.00000  Uiso   1.00
C898   C     0.36108   0.79529   0.58196   0.00000  Uiso   1.00
C899   C     0.37835   0.60603   0.74203   0.00000  Uiso   1.00
C900   C     0.42973   0.64340   0.70006   0.00000  Uiso   1.00
C901   C     0.38834   0.62957   0.70064   0.00000  Uiso   1.00
C902   C     0.42607   0.77968   0.53980   0.00000  Uiso   1.00
C903   C     0.32015   0.61445   0.90665   0.00000  Uiso   1.00
C904   C     0.31982   0.61894   0.66459   0.00000  Uiso   1.00
C905   C     0.46879   0.72818   0.57979   0.00000  Uiso   1.00
C906   C     0.43649   0.75734   0.58321   0.00000  Uiso   1.00
C907   C     0.37164   0.77362   0.62610   0.00000  Uiso   1.00
C908   C     0.40896   0.75630   0.62729   0.00000  Uiso   1.00
C909   C     0.42778   0.64021   0.94804   0.00000  Uiso   1.00
C910   C     0.38392   0.62942   0.94997   0.00000  Uiso   1.00
C911   C     0.43008   0.78009   0.78476   0.00000  Uiso   1.00
C912   C     0.35801   0.63675   0.66277   0.00000  Uiso   1.00
C913   C     0.46791   0.72615   0.82426   0.00000  Uiso   1.00
C914   C     0.43782   0.75603   0.82684   0.00000  Uiso   1.00
C915   C     0.37740   0.77811   0.86891   0.00000  Uiso   1.00
C916   C     0.41358   0.75781   0.87195   0.00000  Uiso   1.00
C917   C     0.36887   0.61419   0.99673   0.00000  Uiso   1.00
C918   C     0.36634   0.79812   0.82355   0.00000  Uiso   1.00
C919   C     0.36891   0.80350   0.32438   0.00000  Uiso   1.00
C920   C     0.37243   0.95325   0.24515   0.00000  Uiso   1.00
C921   C     0.33608   0.93592   0.24745   0.00000  Uiso   1.00
C922   C     0.35798   0.97372   0.15829   0.00000  Uiso   1.00
C923   C     0.32032   0.95445   0.15884   0.00000  Uiso   1.00
C924   C     0.42803   0.98294   0.20045   0.00000  Uiso   1.00
C925   C     0.38630   0.97147   0.20065   0.00000  Uiso   1.00
C926   C     0.28360   0.90065   0.20231   0.00000  Uiso   1.00
C927   C     0.31119   0.93126   0.20230   0.00000  Uiso   1.00
C928   C     0.32579   0.82173   0.07824   0.00000  Uiso   1.00
C929   C     0.35678   0.97187   0.41030   0.00000  Uiso   1.00
C930   C     0.31862   0.95269   0.41326   0.00000  Uiso   1.00
C931   C     0.42625   0.98156   0.45038   0.00000  Uiso   1.00
C932   C     0.38461   0.96901   0.45348   0.00000  Uiso   1.00
C933   C     0.28151   0.89873   0.45409   0.00000  Uiso   1.00
C934   C     0.31033   0.92941   0.45684   0.00000  Uiso   1.00
C935   C     0.32668   0.81780   0.32259   0.00000  Uiso   1.00
C936   C     0.39873   0.80963   0.28395   0.00000  Uiso   1.00
C937   C     0.36931   0.80850   0.07843   0.00000  Uiso   1.00
C938   C     0.39596   0.80790   0.03333   0.00000  Uiso   1.00
C939   C     0.37304   0.94923   0.49686   0.00000  Uiso   1.00
C940   C     0.33642   0.93089   0.49710   0.00000  Uiso   1.00
C941   C     0.37637   0.94309   0.74295   0.00000  Uiso   1.00
C942   C     0.33951   0.92510   0.74451   0.00000  Uiso   1.00
C943   C     0.35727   0.97047   0.65888   0.00000  Uiso   1.00
C944   C     0.32038   0.94865   0.65997   0.00000  Uiso   1.00
C945   C     0.42664   0.98442   0.70007   0.00000  Uiso   1.00
C946   C     0.38539   0.96687   0.70125   0.00000  Uiso   1.00
C947   C     0.28019   0.89754   0.69988   0.00000  Uiso   1.00
C948   C     0.31225   0.92566   0.70181   0.00000  Uiso   1.00
C949   C     0.32528   0.81564   0.82284   0.00000  Uiso   1.00
C950   C     0.32016   0.81023   0.57854   0.00000  Uiso   1.00
C951   C     0.35974   0.96801   0.90703   0.00000  Uiso   1.00
C952   C     0.32154   0.94873   0.90810   0.00000  Uiso   1.00
C953   C     0.42598   0.98072   0.95195   0.00000  Uiso   1.00
C954   C     0.38521   0.96491   0.95067   0.00000  Uiso   1.00
C955   C     0.28036   0.89865   0.94939   0.00000  Uiso   1.00
C956   C     0.31174   0.92793   0.95266   0.00000  Uiso   1.00
C957   C     0.33775   0.92764   0.99629   0.00000  Uiso   1.00
C958   C     0.37458   0.94484   0.99349   0.00000  Uiso   1.00
C959   C     0.38916   0.80020   0.54135   0.00000  Uiso   1.00
C960   C     0.39432   0.80339   0.78440   0.00000  Uiso   1.00
C961   C     0.67582   0.18728   0.45089   0.00000  Uiso   1.00
C962   C     0.67572   0.18929   0.20035   0.00000  Uiso   1.00
C963   C     0.63158   0.04657   0.12446   0.00000  Uiso   1.00
C964   C     0.66950   0.06421   0.12542   0.00000  Uiso   1.00
C965   C     0.64268   0.03362   0.03222   0.00000  Uiso   1.00
C966   C     0.67702   0.05723   0.03191   0.00000  Uiso   1.00
C967   C     0.57246   0.02011   0.07394   0.00000  Uiso   1.00
C968   C     0.61570   0.03213   0.07637   0.00000  Uiso   1.00
C969   C     0.71962   0.10426   0.07636   0.00000  Uiso   1.00
C970   C     0.68957   0.07393   0.07871   0.00000  Uiso   1.00
C971   C     0.62584   0.05583   0.37261   0.00000  Uiso   1.00
C972   C     0.66396   0.07159   0.37357   0.00000  Uiso   1.00
C973   C     0.64178   0.03058   0.28710   0.00000  Uiso   1.00
C974   C     0.67591   0.05278   0.28399   0.00000  Uiso   1.00
C975   C     0.57354   0.02010   0.32623   0.00000  Uiso   1.00
C976   C     0.61516   0.03444   0.32964   0.00000  Uiso   1.00
C977   C     0.71848   0.10326   0.32342   0.00000  Uiso   1.00
C978   C     0.68760   0.07387   0.32844   0.00000  Uiso   1.00
C979   C     0.60576   0.19651   0.40993   0.00000  Uiso   1.00
C980   C     0.60326   0.19317   0.16336   0.00000  Uiso   1.00
C981   C     0.67703   0.18456   0.69771   0.00000  Uiso   1.00
C982   C     0.67713   0.18835   0.95336   0.00000  Uiso   1.00
C983   C     0.63540   0.19944   0.69685   0.00000  Uiso   1.00
C984   C     0.63012   0.05044   0.62020   0.00000  Uiso   1.00
C985   C     0.66631   0.06760   0.62167   0.00000  Uiso   1.00
C986   C     0.64217   0.02945   0.53050   0.00000  Uiso   1.00
C987   C     0.67725   0.05223   0.53028   0.00000  Uiso   1.00
C988   C     0.57510   0.01916   0.57635   0.00000  Uiso   1.00
C989   C     0.61775   0.03226   0.57682   0.00000  Uiso   1.00
C990   C     0.71476   0.10453   0.57429   0.00000  Uiso   1.00
C991   C     0.68902   0.07241   0.57435   0.00000  Uiso   1.00
C992   C     0.62235   0.05773   0.87415   0.00000  Uiso   1.00
C993   C     0.65958   0.07615   0.87504   0.00000  Uiso   1.00
C994   C     0.64183   0.03046   0.78970   0.00000  Uiso   1.00
C995   C     0.67878   0.04907   0.79037   0.00000  Uiso   1.00
C996   C     0.57110   0.02273   0.82767   0.00000  Uiso   1.00
C997   C     0.61253   0.03722   0.83109   0.00000  Uiso   1.00
C998   C     0.71470   0.10464   0.82762   0.00000  Uiso   1.00
C999   C     0.68502   0.07553   0.83031   0.00000  Uiso   1.00
C1000  C     0.60641   0.19419   0.91195   0.00000  Uiso   1.00
C1001  C     0.61090   0.19903   0.65337   0.00000  Uiso   1.00
C1002  C     0.63446   0.19946   0.95472   0.00000  Uiso   1.00
C1003  C     0.62435   0.22704   0.49238   0.00000  Uiso   1.00
C1004  C     0.67941   0.38035   0.28504   0.00000  Uiso   1.00
C1005  C     0.62620   0.38903   0.36871   0.00000  Uiso   1.00
C1006  C     0.62693   0.38440   0.11894   0.00000  Uiso   1.00
C1007  C     0.56662   0.21222   0.16544   0.00000  Uiso   1.00
C1008  C     0.68053   0.37720   0.03499   0.00000  Uiso   1.00
C1009  C     0.64488   0.35592   0.03627   0.00000  Uiso   1.00
C1010  C     0.52607   0.26647   0.20285   0.00000  Uiso   1.00
C1011  C     0.55440   0.23488   0.20811   0.00000  Uiso   1.00
C1012  C     0.61883   0.22130   0.24654   0.00000  Uiso   1.00
C1013  C     0.58153   0.23714   0.24933   0.00000  Uiso   1.00
C1014  C     0.57365   0.34803   0.07524   0.00000  Uiso   1.00
C1015  C     0.61672   0.36162   0.07758   0.00000  Uiso   1.00
C1016  C     0.57131   0.21989   0.41026   0.00000  Uiso   1.00
C1017  C     0.63176   0.20028   0.20375   0.00000  Uiso   1.00
C1018  C     0.64159   0.36102   0.28424   0.00000  Uiso   1.00
C1019  C     0.52758   0.26871   0.44993   0.00000  Uiso   1.00
C1020  C     0.55886   0.24057   0.45411   0.00000  Uiso   1.00
C1021  C     0.57176   0.35409   0.32343   0.00000  Uiso   1.00
C1022  C     0.61341   0.36782   0.32388   0.00000  Uiso   1.00
C1023  C     0.63456   0.20131   0.45214   0.00000  Uiso   1.00
C1024  C     0.58613   0.24324   0.49676   0.00000  Uiso   1.00
C1025  C     0.58248   0.23189   0.00191   0.00000  Uiso   1.00
C1026  C     0.62067   0.21583   0.00007   0.00000  Uiso   1.00
C1027  C     0.62422   0.38579   0.61613   0.00000  Uiso   1.00
C1028  C     0.67522   0.38517   0.52994   0.00000  Uiso   1.00
C1029  C     0.57691   0.22169   0.65082   0.00000  Uiso   1.00
C1030  C     0.68308   0.38075   0.78756   0.00000  Uiso   1.00
C1031  C     0.64799   0.35958   0.78685   0.00000  Uiso   1.00
C1032  C     0.53164   0.26783   0.69414   0.00000  Uiso   1.00
C1033  C     0.56375   0.23900   0.69585   0.00000  Uiso   1.00
C1034  C     0.58689   0.23803   0.74112   0.00000  Uiso   1.00
C1035  C     0.57310   0.35031   0.57128   0.00000  Uiso   1.00
C1036  C     0.61399   0.36559   0.57167   0.00000  Uiso   1.00
C1037  C     0.62391   0.22159   0.73854   0.00000  Uiso   1.00
C1038  C     0.56955   0.21261   0.91359   0.00000  Uiso   1.00
C1039  C     0.63021   0.38315   0.87200   0.00000  Uiso   1.00
C1040  C     0.63823   0.36646   0.52827   0.00000  Uiso   1.00
C1041  C     0.52986   0.26594   0.95034   0.00000  Uiso   1.00
C1042  C     0.55903   0.23338   0.95679   0.00000  Uiso   1.00
C1043  C     0.57379   0.35446   0.82278   0.00000  Uiso   1.00
C1044  C     0.61803   0.36750   0.82480   0.00000  Uiso   1.00
C1045  C     0.71982   0.43458   0.32299   0.00000  Uiso   1.00
C1046  C     0.66255   0.40505   0.11784   0.00000  Uiso   1.00
C1047  C     0.62179   0.55466   0.49333   0.00000  Uiso   1.00
C1048  C     0.60766   0.53096   0.15954   0.00000  Uiso   1.00
C1049  C     0.57298   0.55213   0.16018   0.00000  Uiso   1.00
C1050  C     0.67822   0.51731   0.19818   0.00000  Uiso   1.00
C1051  C     0.63648   0.53255   0.20048   0.00000  Uiso   1.00
C1052  C     0.56375   0.57601   0.20221   0.00000  Uiso   1.00
C1053  C     0.62683   0.55490   0.24313   0.00000  Uiso   1.00
C1054  C     0.59019   0.57637   0.24628   0.00000  Uiso   1.00
C1055  C     0.72065   0.43232   0.07353   0.00000  Uiso   1.00
C1056  C     0.60744   0.53096   0.40774   0.00000  Uiso   1.00
C1057  C     0.57157   0.55116   0.40896   0.00000  Uiso   1.00
C1058  C     0.67688   0.51931   0.44691   0.00000  Uiso   1.00
C1059  C     0.63402   0.53415   0.44918   0.00000  Uiso   1.00
C1060  C     0.55993   0.57197   0.45512   0.00000  Uiso   1.00
C1061  C     0.68822   0.40560   0.32485   0.00000  Uiso   1.00
C1062  C     0.68884   0.40339   0.07533   0.00000  Uiso   1.00
C1063  C     0.66362   0.40579   0.36795   0.00000  Uiso   1.00
C1064  C     0.58456   0.56971   0.49964   0.00000  Uiso   1.00
C1065  C     0.58878   0.57246   0.00133   0.00000  Uiso   1.00
C1066  C     0.68563   0.40663   0.57259   0.00000  Uiso   1.00
C1067  C     0.69107   0.40614   0.82844   0.00000  Uiso   1.00
C1068  C     0.60708   0.52697   0.66062   0.00000  Uiso   1.00
C1069  C     0.57144   0.54744   0.66399   0.00000  Uiso   1.00
C1070  C     0.67617   0.51684   0.69864   0.00000  Uiso   1.00
C1071  C     0.63652   0.53338   0.70069   0.00000  Uiso   1.00
C1072  C     0.56344   0.57271   0.70564   0.00000  Uiso   1.00
C1073  C     0.72328   0.43446   0.82520   0.00000  Uiso   1.00
C1074  C     0.62854   0.55805   0.74332   0.00000  Uiso   1.00
C1075  C     0.59014   0.57419   0.74868   0.00000  Uiso   1.00
C1076  C     0.71703   0.43585   0.57172   0.00000  Uiso   1.00
C1077  C     0.60554   0.52802   0.91391   0.00000  Uiso   1.00
C1078  C     0.56842   0.54703   0.91804   0.00000  Uiso   1.00
C1079  C     0.67747   0.51913   0.94922   0.00000  Uiso   1.00
C1080  C     0.63493   0.53194   0.95426   0.00000  Uiso   1.00
C1081  C     0.56230   0.57172   0.95814   0.00000  Uiso   1.00
C1082  C     0.62620   0.55445   0.99838   0.00000  Uiso   1.00
C1083  C     0.66150   0.40387   0.61708   0.00000  Uiso   1.00
C1084  C     0.66641   0.40469   0.87522   0.00000  Uiso   1.00
C1085  C     0.62462   0.72365   0.12158   0.00000  Uiso   1.00
C1086  C     0.66030   0.74166   0.12847   0.00000  Uiso   1.00
C1087  C     0.64545   0.69912   0.03777   0.00000  Uiso   1.00
C1088  C     0.68218   0.71785   0.04195   0.00000  Uiso   1.00
C1089  C     0.57211   0.69028   0.07362   0.00000  Uiso   1.00
C1090  C     0.61501   0.70268   0.07675   0.00000  Uiso   1.00
C1091  C     0.71667   0.77322   0.07967   0.00000  Uiso   1.00
C1092  C     0.68873   0.74123   0.08522   0.00000  Uiso   1.00
C1093  C     0.63062   0.71682   0.37264   0.00000  Uiso   1.00
C1094  C     0.66859   0.73515   0.37576   0.00000  Uiso   1.00
C1095  C     0.64776   0.69914   0.28410   0.00000  Uiso   1.00
C1096  C     0.68332   0.71816   0.28478   0.00000  Uiso   1.00
C1097  C     0.57528   0.68703   0.32238   0.00000  Uiso   1.00
C1098  C     0.61816   0.69970   0.32578   0.00000  Uiso   1.00
C1099  C     0.72113   0.77124   0.32745   0.00000  Uiso   1.00
C1100  C     0.69332   0.73824   0.33171   0.00000  Uiso   1.00
C1101  C     0.53475   0.60674   0.20000   0.00000  Uiso   1.00
C1102  C     0.53191   0.60340   0.44984   0.00000  Uiso   1.00
C1103  C     0.62801   0.72016   0.62465   0.00000  Uiso   1.00
C1104  C     0.66377   0.74029   0.62405   0.00000  Uiso   1.00
C1105  C     0.64316   0.69584   0.53830   0.00000  Uiso   1.00
C1106  C     0.67814   0.71815   0.53732   0.00000  Uiso   1.00
C1107  C     0.57388   0.68561   0.57859   0.00000  Uiso   1.00
C1108  C     0.61659   0.69858   0.58117   0.00000  Uiso   1.00
C1109  C     0.71777   0.77037   0.57726   0.00000  Uiso   1.00
C1110  C     0.68736   0.74140   0.57900   0.00000  Uiso   1.00
C1111  C     0.62283   0.72081   0.87319   0.00000  Uiso   1.00
C1112  C     0.66013   0.73922   0.87621   0.00000  Uiso   1.00
C1113  C     0.64122   0.69754   0.78725   0.00000  Uiso   1.00
C1114  C     0.67560   0.72016   0.78678   0.00000  Uiso   1.00
C1115  C     0.57079   0.68601   0.82525   0.00000  Uiso   1.00
C1116  C     0.61281   0.70194   0.82688   0.00000  Uiso   1.00
C1117  C     0.71353   0.77380   0.82670   0.00000  Uiso   1.00
C1118  C     0.68350   0.74355   0.83072   0.00000  Uiso   1.00
C1119  C     0.53219   0.60219   0.69953   0.00000  Uiso   1.00
C1120  C     0.53518   0.60310   0.95361   0.00000  Uiso   1.00
C1121  C     0.60991   0.86715   0.16040   0.00000  Uiso   1.00
C1122  C     0.57399   0.88783   0.15863   0.00000  Uiso   1.00
C1123  C     0.67662   0.85316   0.20430   0.00000  Uiso   1.00
C1124  C     0.63578   0.86824   0.20404   0.00000  Uiso   1.00
C1125  C     0.53014   0.93646   0.20076   0.00000  Uiso   1.00
C1126  C     0.56158   0.90572   0.20375   0.00000  Uiso   1.00
C1127  C     0.62097   0.88444   0.25150   0.00000  Uiso   1.00
C1128  C     0.58437   0.90292   0.25151   0.00000  Uiso   1.00
C1129  C     0.60814   0.86366   0.41543   0.00000  Uiso   1.00
C1130  C     0.57005   0.88173   0.41456   0.00000  Uiso   1.00
C1131  C     0.67849   0.85845   0.45241   0.00000  Uiso   1.00
C1132  C     0.63696   0.87180   0.45453   0.00000  Uiso   1.00
C1133  C     0.53054   0.93581   0.45237   0.00000  Uiso   1.00
C1134  C     0.56131   0.90751   0.45702   0.00000  Uiso   1.00
C1135  C     0.62813   0.89623   0.49585   0.00000  Uiso   1.00
C1136  C     0.58293   0.90839   0.00050   0.00000  Uiso   1.00
C1137  C     0.59020   0.91159   0.49851   0.00000  Uiso   1.00
C1138  C     0.60391   0.86655   0.66478   0.00000  Uiso   1.00
C1139  C     0.56631   0.88501   0.66800   0.00000  Uiso   1.00
C1140  C     0.67473   0.85614   0.70270   0.00000  Uiso   1.00
C1141  C     0.63325   0.87066   0.70455   0.00000  Uiso   1.00
C1142  C     0.53132   0.94095   0.70421   0.00000  Uiso   1.00
C1143  C     0.55880   0.90965   0.71047   0.00000  Uiso   1.00
C1144  C     0.62054   0.89066   0.75038   0.00000  Uiso   1.00
C1145  C     0.58481   0.90914   0.75363   0.00000  Uiso   1.00
C1146  C     0.60686   0.86697   0.91066   0.00000  Uiso   1.00
C1147  C     0.56990   0.88614   0.91330   0.00000  Uiso   1.00
C1148  C     0.67467   0.86216   0.95424   0.00000  Uiso   1.00
C1149  C     0.63318   0.87195   0.95369   0.00000  Uiso   1.00
C1150  C     0.52800   0.93813   0.95247   0.00000  Uiso   1.00
C1151  C     0.56007   0.90878   0.95620   0.00000  Uiso   1.00
C1152  C     0.62166   0.89182   0.99739   0.00000  Uiso   1.00
C1153  C     0.89459   0.13950   0.03882   0.00000  Uiso   1.00
C1154  C     0.92810   0.11726   0.03904   0.00000  Uiso   1.00
C1155  C     0.82258   0.15036   0.07796   0.00000  Uiso   1.00
C1156  C     0.86414   0.13531   0.08015   0.00000  Uiso   1.00
C1157  C     0.96392   0.06228   0.07837   0.00000  Uiso   1.00
C1158  C     0.93652   0.09367   0.08094   0.00000  Uiso   1.00
C1159  C     0.87300   0.11008   0.12126   0.00000  Uiso   1.00
C1160  C     0.90832   0.09129   0.12407   0.00000  Uiso   1.00
C1161  C     0.89688   0.13999   0.28590   0.00000  Uiso   1.00
C1162  C     0.93390   0.11974   0.28955   0.00000  Uiso   1.00
C1163  C     0.82402   0.14818   0.32560   0.00000  Uiso   1.00
C1164  C     0.86684   0.13646   0.32788   0.00000  Uiso   1.00
C1165  C     0.96933   0.06582   0.32824   0.00000  Uiso   1.00
C1166  C     0.93812   0.09402   0.32913   0.00000  Uiso   1.00
C1167  C     0.87588   0.11248   0.36982   0.00000  Uiso   1.00
C1168  C     0.91185   0.09403   0.37224   0.00000  Uiso   1.00
C1169  C     0.88985   0.13360   0.53407   0.00000  Uiso   1.00
C1170  C     0.92340   0.11039   0.53393   0.00000  Uiso   1.00
C1171  C     0.82186   0.14883   0.57330   0.00000  Uiso   1.00
C1172  C     0.86367   0.13481   0.57605   0.00000  Uiso   1.00
C1173  C     0.96565   0.06118   0.57509   0.00000  Uiso   1.00
C1174  C     0.93279   0.08978   0.57706   0.00000  Uiso   1.00
C1175  C     0.87298   0.11159   0.62103   0.00000  Uiso   1.00
C1176  C     0.90979   0.09344   0.62329   0.00000  Uiso   1.00
C1177  C     0.89298   0.13728   0.78674   0.00000  Uiso   1.00
C1178  C     0.92977   0.11832   0.78656   0.00000  Uiso   1.00
C1179  C     0.82108   0.14476   0.82450   0.00000  Uiso   1.00
C1180  C     0.86351   0.12904   0.82614   0.00000  Uiso   1.00
C1181  C     0.97013   0.06476   0.82680   0.00000  Uiso   1.00
C1182  C     0.93959   0.09559   0.82997   0.00000  Uiso   1.00
C1183  C     0.87748   0.11113   0.87165   0.00000  Uiso   1.00
C1184  C     0.91759   0.09924   0.87628   0.00000  Uiso   1.00
C1185  C     0.87519   0.27965   0.24882   0.00000  Uiso   1.00
C1186  C     0.83926   0.26333   0.25147   0.00000  Uiso   1.00
C1187  C     0.85754   0.30640   0.16251   0.00000  Uiso   1.00
C1188  C     0.82184   0.28666   0.16421   0.00000  Uiso   1.00
C1189  C     0.92860   0.31367   0.20098   0.00000  Uiso   1.00
C1190  C     0.88658   0.30074   0.20480   0.00000  Uiso   1.00
C1191  C     0.78045   0.23312   0.20192   0.00000  Uiso   1.00
C1192  C     0.81250   0.26343   0.20674   0.00000  Uiso   1.00
C1193  C     0.85857   0.30318   0.41211   0.00000  Uiso   1.00
C1194  C     0.82433   0.28065   0.41189   0.00000  Uiso   1.00
C1195  C     0.93009   0.30731   0.45127   0.00000  Uiso   1.00
C1196  C     0.88698   0.29728   0.45310   0.00000  Uiso   1.00
C1197  C     0.78066   0.22982   0.45155   0.00000  Uiso   1.00
C1198  C     0.81316   0.25795   0.45417   0.00000  Uiso   1.00
C1199  C     0.96647   0.39125   0.07683   0.00000  Uiso   1.00
C1200  C     0.96730   0.39159   0.32745   0.00000  Uiso   1.00
C1201  C     0.83848   0.25843   0.49825   0.00000  Uiso   1.00
C1202  C     0.87602   0.27601   0.49639   0.00000  Uiso   1.00
C1203  C     0.83490   0.26491   0.99927   0.00000  Uiso   1.00
C1204  C     0.87331   0.27742   0.74860   0.00000  Uiso   1.00
C1205  C     0.83626   0.25720   0.74831   0.00000  Uiso   1.00
C1206  C     0.85895   0.29720   0.65686   0.00000  Uiso   1.00
C1207  C     0.81939   0.28035   0.66077   0.00000  Uiso   1.00
C1208  C     0.92872   0.30902   0.70038   0.00000  Uiso   1.00
C1209  C     0.88572   0.29532   0.70185   0.00000  Uiso   1.00
C1210  C     0.78131   0.22896   0.70012   0.00000  Uiso   1.00
C1211  C     0.81086   0.25759   0.70528   0.00000  Uiso   1.00
C1212  C     0.85998   0.30061   0.90929   0.00000  Uiso   1.00
C1213  C     0.82122   0.28472   0.91114   0.00000  Uiso   1.00
C1214  C     0.93070   0.30742   0.94965   0.00000  Uiso   1.00
C1215  C     0.88715   0.29477   0.95105   0.00000  Uiso   1.00
C1216  C     0.78004   0.23180   0.95109   0.00000  Uiso   1.00
C1217  C     0.81116   0.26268   0.95388   0.00000  Uiso   1.00
C1218  C     0.87392   0.27917   0.99634   0.00000  Uiso   1.00
C1219  C     0.96574   0.39324   0.82797   0.00000  Uiso   1.00
C1220  C     0.96834   0.39147   0.57530   0.00000  Uiso   1.00
C1221  C     0.78188   0.56041   0.44820   0.00000  Uiso   1.00
C1222  C     0.86685   0.46380   0.32671   0.00000  Uiso   1.00
C1223  C     0.91719   0.42943   0.37601   0.00000  Uiso   1.00
C1224  C     0.87931   0.44579   0.37288   0.00000  Uiso   1.00
C1225  C     0.89599   0.46816   0.03670   0.00000  Uiso   1.00
C1226  C     0.93193   0.44775   0.04096   0.00000  Uiso   1.00
C1227  C     0.81085   0.59091   0.45178   0.00000  Uiso   1.00
C1228  C     0.82407   0.47884   0.07499   0.00000  Uiso   1.00
C1229  C     0.86541   0.46255   0.07681   0.00000  Uiso   1.00
C1230  C     0.93658   0.42120   0.08116   0.00000  Uiso   1.00
C1231  C     0.87525   0.44036   0.12072   0.00000  Uiso   1.00
C1232  C     0.91070   0.42151   0.12479   0.00000  Uiso   1.00
C1233  C     0.78307   0.55921   0.19966   0.00000  Uiso   1.00
C1234  C     0.89313   0.46209   0.28200   0.00000  Uiso   1.00
C1235  C     0.92918   0.44301   0.28395   0.00000  Uiso   1.00
C1236  C     0.94076   0.42409   0.32961   0.00000  Uiso   1.00
C1237  C     0.82353   0.47649   0.32219   0.00000  Uiso   1.00
C1238  C     0.84168   0.58450   0.24449   0.00000  Uiso   1.00
C1239  C     0.81244   0.58865   0.20257   0.00000  Uiso   1.00
C1240  C     0.83366   0.59523   0.49830   0.00000  Uiso   1.00
C1241  C     0.81467   0.58964   0.69891   0.00000  Uiso   1.00
C1242  C     0.78138   0.56011   0.95206   0.00000  Uiso   1.00
C1243  C     0.91193   0.42462   0.87381   0.00000  Uiso   1.00
C1244  C     0.87885   0.44794   0.87305   0.00000  Uiso   1.00
C1245  C     0.89793   0.47090   0.54011   0.00000  Uiso   1.00
C1246  C     0.93130   0.44765   0.53973   0.00000  Uiso   1.00
C1247  C     0.82430   0.48163   0.57290   0.00000  Uiso   1.00
C1248  C     0.86575   0.46589   0.57538   0.00000  Uiso   1.00
C1249  C     0.93679   0.42188   0.57977   0.00000  Uiso   1.00
C1250  C     0.87355   0.44056   0.61704   0.00000  Uiso   1.00
C1251  C     0.90981   0.42102   0.61953   0.00000  Uiso   1.00
C1252  C     0.78235   0.56214   0.69681   0.00000  Uiso   1.00
C1253  C     0.93449   0.42154   0.82783   0.00000  Uiso   1.00
C1254  C     0.89259   0.46687   0.78245   0.00000  Uiso   1.00
C1255  C     0.92760   0.44390   0.78525   0.00000  Uiso   1.00
C1256  C     0.82239   0.48003   0.82533   0.00000  Uiso   1.00
C1257  C     0.86631   0.46633   0.82789   0.00000  Uiso   1.00
C1258  C     0.81164   0.58980   0.95420   0.00000  Uiso   1.00
C1259  C     0.84088   0.58938   0.74252   0.00000  Uiso   1.00
C1260  C     0.83874   0.59011   0.99730   0.00000  Uiso   1.00
C1261  C     0.85436   0.63778   0.40941   0.00000  Uiso   1.00
C1262  C     0.87838   0.60203   0.24134   0.00000  Uiso   1.00
C1263  C     0.92630   0.64440   0.20244   0.00000  Uiso   1.00
C1264  C     0.88499   0.62749   0.20115   0.00000  Uiso   1.00
C1265  C     0.81922   0.61415   0.16268   0.00000  Uiso   1.00
C1266  C     0.92599   0.78121   0.03925   0.00000  Uiso   1.00
C1267  C     0.81925   0.61430   0.40995   0.00000  Uiso   1.00
C1268  C     0.96627   0.73036   0.07694   0.00000  Uiso   1.00
C1269  C     0.93482   0.75706   0.08111   0.00000  Uiso   1.00
C1270  C     0.87310   0.77910   0.12434   0.00000  Uiso   1.00
C1271  C     0.91093   0.76093   0.12639   0.00000  Uiso   1.00
C1272  C     0.92599   0.64762   0.45255   0.00000  Uiso   1.00
C1273  C     0.88161   0.63524   0.45365   0.00000  Uiso   1.00
C1274  C     0.92565   0.78006   0.28816   0.00000  Uiso   1.00
C1275  C     0.85529   0.63349   0.16424   0.00000  Uiso   1.00
C1276  C     0.96495   0.72774   0.32639   0.00000  Uiso   1.00
C1277  C     0.93402   0.75693   0.33071   0.00000  Uiso   1.00
C1278  C     0.87401   0.77923   0.37578   0.00000  Uiso   1.00
C1279  C     0.90977   0.75785   0.37497   0.00000  Uiso   1.00
C1280  C     0.86238   0.79897   0.33136   0.00000  Uiso   1.00
C1281  C     0.87000   0.61413   0.49766   0.00000  Uiso   1.00
C1282  C     0.86150   0.79830   0.07937   0.00000  Uiso   1.00
C1283  C     0.85513   0.63460   0.90858   0.00000  Uiso   1.00
C1284  C     0.87568   0.60826   0.74009   0.00000  Uiso   1.00
C1285  C     0.85391   0.64167   0.66225   0.00000  Uiso   1.00
C1286  C     0.92599   0.64818   0.69938   0.00000  Uiso   1.00
C1287  C     0.88433   0.63386   0.70025   0.00000  Uiso   1.00
C1288  C     0.92366   0.78194   0.53842   0.00000  Uiso   1.00
C1289  C     0.96334   0.72860   0.57589   0.00000  Uiso   1.00
C1290  C     0.93210   0.75922   0.57986   0.00000  Uiso   1.00
C1291  C     0.87372   0.78301   0.62613   0.00000  Uiso   1.00
C1292  C     0.90955   0.76218   0.62584   0.00000  Uiso   1.00
C1293  C     0.92534   0.64710   0.94687   0.00000  Uiso   1.00
C1294  C     0.88487   0.63021   0.94868   0.00000  Uiso   1.00
C1295  C     0.92395   0.78236   0.78663   0.00000  Uiso   1.00
C1296  C     0.81874   0.61409   0.91103   0.00000  Uiso   1.00
C1297  C     0.82013   0.61797   0.65958   0.00000  Uiso   1.00
C1298  C     0.96840   0.73315   0.82496   0.00000  Uiso   1.00
C1299  C     0.93469   0.75939   0.82782   0.00000  Uiso   1.00
C1300  C     0.87070   0.77333   0.87092   0.00000  Uiso   1.00
C1301  C     0.90857   0.75744   0.87176   0.00000  Uiso   1.00
C1302  C     0.85974   0.79779   0.83028   0.00000  Uiso   1.00
C1303  C     0.87460   0.61073   0.99508   0.00000  Uiso   1.00
C1304  C     0.82072   0.81529   0.07733   0.00000  Uiso   1.00
C1305  C     0.87167   0.94729   0.24903   0.00000  Uiso   1.00
C1306  C     0.83427   0.93298   0.25188   0.00000  Uiso   1.00
C1307  C     0.85770   0.96780   0.16017   0.00000  Uiso   1.00
C1308  C     0.82028   0.94950   0.16387   0.00000  Uiso   1.00
C1309  C     0.92792   0.97818   0.20097   0.00000  Uiso   1.00
C1310  C     0.88508   0.96467   0.20256   0.00000  Uiso   1.00
C1311  C     0.78044   0.89929   0.20606   0.00000  Uiso   1.00
C1312  C     0.80893   0.93054   0.20943   0.00000  Uiso   1.00
C1313  C     0.85673   0.97044   0.41242   0.00000  Uiso   1.00
C1314  C     0.81802   0.95446   0.41557   0.00000  Uiso   1.00
C1315  C     0.92655   0.97839   0.45160   0.00000  Uiso   1.00
C1316  C     0.88422   0.96509   0.45271   0.00000  Uiso   1.00
C1317  C     0.78115   0.89780   0.45638   0.00000  Uiso   1.00
C1318  C     0.80805   0.93101   0.45890   0.00000  Uiso   1.00
C1319  C     0.89074   0.80107   0.03779   0.00000  Uiso   1.00
C1320  C     0.82204   0.81434   0.33019   0.00000  Uiso   1.00
C1321  C     0.87257   0.94454   0.49624   0.00000  Uiso   1.00
C1322  C     0.89199   0.80292   0.29114   0.00000  Uiso   1.00
C1323  C     0.82027   0.81561   0.57881   0.00000  Uiso   1.00
C1324  C     0.88772   0.80422   0.79019   0.00000  Uiso   1.00
C1325  C     0.86972   0.95022   0.74959   0.00000  Uiso   1.00
C1326  C     0.83144   0.93576   0.75269   0.00000  Uiso   1.00
C1327  C     0.85360   0.97511   0.66316   0.00000  Uiso   1.00
C1328  C     0.81955   0.95178   0.66237   0.00000  Uiso   1.00
C1329  C     0.92265   0.98540   0.70332   0.00000  Uiso   1.00
C1330  C     0.88074   0.97348   0.70543   0.00000  Uiso   1.00
C1331  C     0.78220   0.89914   0.70290   0.00000  Uiso   1.00
C1332  C     0.81003   0.93108   0.70620   0.00000  Uiso   1.00
C1333  C     0.81763   0.81015   0.82902   0.00000  Uiso   1.00
C1334  C     0.85863   0.97101   0.91161   0.00000  Uiso   1.00
C1335  C     0.82133   0.95120   0.91215   0.00000  Uiso   1.00
C1336  C     0.92693   0.97960   0.95004   0.00000  Uiso   1.00
C1337  C     0.88516   0.96566   0.95311   0.00000  Uiso   1.00
C1338  C     0.78137   0.89809   0.95222   0.00000  Uiso   1.00
C1339  C     0.81246   0.92731   0.95437   0.00000  Uiso   1.00
C1340  C     0.87582   0.94481   0.99602   0.00000  Uiso   1.00
C1341  C     0.88879   0.80551   0.53832   0.00000  Uiso   1.00
C1342  C     0.86172   0.80255   0.57981   0.00000  Uiso   1.00
C1343  C     0.83961   0.92628   0.99647   0.00000  Uiso   1.00
C1344  C     0.83262   0.93030   0.50302   0.00000  Uiso   1.00
O1345  O     0.05256   0.01755   0.27896   0.00000  Uiso   1.00
O1346  O     0.19514   0.17359   0.49246   0.00000  Uiso   1.00
O1347  O     0.23329   0.11726   0.11946   0.00000  Uiso   1.00
O1348  O     0.19788   0.17898   0.15427   0.00000  Uiso   1.00
O1349  O     0.05257   0.01934   0.11929   0.00000  Uiso   1.00
O1350  O     0.22887   0.11773   0.02714   0.00000  Uiso   1.00
O1351  O     0.05673   0.01756   0.02875   0.00000  Uiso   1.00
O1352  O     0.19882   0.17649   0.24599   0.00000  Uiso   1.00
O1353  O     0.22979   0.11496   0.36993   0.00000  Uiso   1.00
O1354  O     0.19741   0.17904   0.39880   0.00000  Uiso   1.00
O1355  O     0.05306   0.01766   0.37080   0.00000  Uiso   1.00
O1356  O     0.23080   0.11313   0.27703   0.00000  Uiso   1.00
O1357  O     0.05129   0.01454   0.77768   0.00000  Uiso   1.00
O1358  O     0.19623   0.18051   0.99464   0.00000  Uiso   1.00
O1359  O     0.22869   0.11463   0.77829   0.00000  Uiso   1.00
O1360  O     0.22877   0.11668   0.62208   0.00000  Uiso   1.00
O1361  O     0.19789   0.18324   0.65344   0.00000  Uiso   1.00
O1362  O     0.05143   0.01290   0.62017   0.00000  Uiso   1.00
O1363  O     0.22864   0.11438   0.52920   0.00000  Uiso   1.00
O1364  O     0.05490   0.01356   0.53024   0.00000  Uiso   1.00
O1365  O     0.19543   0.17581   0.74602   0.00000  Uiso   1.00
O1366  O     0.22826   0.11749   0.87179   0.00000  Uiso   1.00
O1367  O     0.19521   0.17972   0.90283   0.00000  Uiso   1.00
O1368  O     0.05254   0.01827   0.86737   0.00000  Uiso   1.00
O1369  O     0.05847   0.34284   0.27746   0.00000  Uiso   1.00
O1370  O     0.05550   0.34814   0.12117   0.00000  Uiso   1.00
O1371  O     0.05487   0.34738   0.37001   0.00000  Uiso   1.00
O1372  O     0.02438   0.28040   0.40545   0.00000  Uiso   1.00
O1373  O     0.05479   0.34941   0.02705   0.00000  Uiso   1.00
O1374  O     0.02412   0.28107   0.24526   0.00000  Uiso   1.00
O1375  O     0.02477   0.28106   0.15072   0.00000  Uiso   1.00
O1376  O     0.02889   0.28451   0.49720   0.00000  Uiso   1.00
O1377  O     0.05524   0.34789   0.77892   0.00000  Uiso   1.00
O1378  O     0.05678   0.34397   0.62359   0.00000  Uiso   1.00
O1379  O     0.05416   0.34921   0.87144   0.00000  Uiso   1.00
O1380  O     0.02296   0.27977   0.74179   0.00000  Uiso   1.00
O1381  O     0.02551   0.28111   0.90243   0.00000  Uiso   1.00
O1382  O     0.05565   0.34805   0.53218   0.00000  Uiso   1.00
O1383  O     0.01902   0.27659   0.65430   0.00000  Uiso   1.00
O1384  O     0.02722   0.28425   0.99729   0.00000  Uiso   1.00
O1385  O     0.22413   0.45177   0.28196   0.00000  Uiso   1.00
O1386  O     0.22488   0.45311   0.03133   0.00000  Uiso   1.00
O1387  O     0.19470   0.51516   0.24580   0.00000  Uiso   1.00
O1388  O     0.19593   0.51419   0.40530   0.00000  Uiso   1.00
O1389  O     0.19457   0.51948   0.15201   0.00000  Uiso   1.00
O1390  O     0.22724   0.45171   0.37553   0.00000  Uiso   1.00
O1391  O     0.22654   0.45307   0.12148   0.00000  Uiso   1.00
O1392  O     0.19775   0.51772   0.49620   0.00000  Uiso   1.00
O1393  O     0.22456   0.45464   0.53192   0.00000  Uiso   1.00
O1394  O     0.19595   0.51698   0.74374   0.00000  Uiso   1.00
O1395  O     0.22747   0.45310   0.78036   0.00000  Uiso   1.00
O1396  O     0.19499   0.52407   0.90216   0.00000  Uiso   1.00
O1397  O     0.19641   0.51780   0.65077   0.00000  Uiso   1.00
O1398  O     0.22275   0.45692   0.87140   0.00000  Uiso   1.00
O1399  O     0.22859   0.45204   0.62258   0.00000  Uiso   1.00
O1400  O     0.19324   0.51761   0.99448   0.00000  Uiso   1.00
O1401  O     0.05209   0.68591   0.02851   0.00000  Uiso   1.00
O1402  O     0.05364   0.68415   0.27908   0.00000  Uiso   1.00
O1403  O     0.05363   0.68457   0.37228   0.00000  Uiso   1.00
O1404  O     0.22818   0.78885   0.28134   0.00000  Uiso   1.00
O1405  O     0.02598   0.61807   0.40690   0.00000  Uiso   1.00
O1406  O     0.22928   0.79123   0.37194   0.00000  Uiso   1.00
O1407  O     0.01974   0.61653   0.15432   0.00000  Uiso   1.00
O1408  O     0.02341   0.61983   0.24789   0.00000  Uiso   1.00
O1409  O     0.23056   0.78876   0.12306   0.00000  Uiso   1.00
O1410  O     0.05232   0.68493   0.12007   0.00000  Uiso   1.00
O1411  O     0.22906   0.78606   0.03250   0.00000  Uiso   1.00
O1412  O     0.02389   0.62196   0.49974   0.00000  Uiso   1.00
O1413  O     0.23060   0.78626   0.87403   0.00000  Uiso   1.00
O1414  O     0.05382   0.68674   0.77513   0.00000  Uiso   1.00
O1415  O     0.05317   0.68677   0.87007   0.00000  Uiso   1.00
O1416  O     0.23068   0.78316   0.78202   0.00000  Uiso   1.00
O1417  O     0.05070   0.68769   0.52861   0.00000  Uiso   1.00
O1418  O     0.02533   0.62233   0.90246   0.00000  Uiso   1.00
O1419  O     0.02265   0.61934   0.65521   0.00000  Uiso   1.00
O1420  O     0.02092   0.62202   0.74588   0.00000  Uiso   1.00
O1421  O     0.22441   0.78836   0.62306   0.00000  Uiso   1.00
O1422  O     0.05187   0.68530   0.62146   0.00000  Uiso   1.00
O1423  O     0.22622   0.78684   0.53056   0.00000  Uiso   1.00
O1424  O     0.02075   0.62230   0.99381   0.00000  Uiso   1.00
O1425  O     0.19491   0.84955   0.49517   0.00000  Uiso   1.00
O1426  O     0.02573   0.95344   0.15523   0.00000  Uiso   1.00
O1427  O     0.19581   0.85496   0.15362   0.00000  Uiso   1.00
O1428  O     0.02078   0.95393   0.24423   0.00000  Uiso   1.00
O1429  O     0.19580   0.85112   0.24550   0.00000  Uiso   1.00
O1430  O     0.02166   0.95261   0.40294   0.00000  Uiso   1.00
O1431  O     0.19545   0.85126   0.40283   0.00000  Uiso   1.00
O1432  O     0.01860   0.95032   0.49665   0.00000  Uiso   1.00
O1433  O     0.01828   0.94992   0.65659   0.00000  Uiso   1.00
O1434  O     0.19489   0.85299   0.65586   0.00000  Uiso   1.00
O1435  O     0.01921   0.95058   0.74807   0.00000  Uiso   1.00
O1436  O     0.19543   0.84778   0.74766   0.00000  Uiso   1.00
O1437  O     0.02222   0.95163   0.90153   0.00000  Uiso   1.00
O1438  O     0.19914   0.85368   0.90379   0.00000  Uiso   1.00
O1439  O     0.02403   0.95236   0.99393   0.00000  Uiso   1.00
O1440  O     0.19624   0.84851   0.99464   0.00000  Uiso   1.00
O1441  O     0.30846   0.15008   0.27503   0.00000  Uiso   1.00
O1442  O     0.30454   0.14955   0.36824   0.00000  Uiso   1.00
O1443  O     0.47982   0.05123   0.37131   0.00000  Uiso   1.00
O1444  O     0.47654   0.05187   0.03155   0.00000  Uiso   1.00
O1445  O     0.30688   0.15130   0.02517   0.00000  Uiso   1.00
O1446  O     0.47909   0.05216   0.12333   0.00000  Uiso   1.00
O1447  O     0.30583   0.15509   0.11899   0.00000  Uiso   1.00
O1448  O     0.48004   0.05029   0.27976   0.00000  Uiso   1.00
O1449  O     0.47609   0.05132   0.78228   0.00000  Uiso   1.00
O1450  O     0.30527   0.14852   0.77967   0.00000  Uiso   1.00
O1451  O     0.30534   0.15070   0.87121   0.00000  Uiso   1.00
O1452  O     0.47823   0.05072   0.87432   0.00000  Uiso   1.00
O1453  O     0.48209   0.05285   0.53070   0.00000  Uiso   1.00
O1454  O     0.30445   0.15081   0.53090   0.00000  Uiso   1.00
O1455  O     0.48286   0.04953   0.62216   0.00000  Uiso   1.00
O1456  O     0.30225   0.14526   0.62331   0.00000  Uiso   1.00
O1457  O     0.44379   0.32179   0.49632   0.00000  Uiso   1.00
O1458  O     0.47810   0.38285   0.27863   0.00000  Uiso   1.00
O1459  O     0.47173   0.37836   0.37050   0.00000  Uiso   1.00
O1460  O     0.44368   0.31635   0.40310   0.00000  Uiso   1.00
O1461  O     0.27362   0.21186   0.24788   0.00000  Uiso   1.00
O1462  O     0.44410   0.31901   0.24740   0.00000  Uiso   1.00
O1463  O     0.27066   0.21618   0.15530   0.00000  Uiso   1.00
O1464  O     0.44400   0.31853   0.15341   0.00000  Uiso   1.00
O1465  O     0.47573   0.38012   0.02751   0.00000  Uiso   1.00
O1466  O     0.47836   0.38144   0.12063   0.00000  Uiso   1.00
O1467  O     0.26874   0.21329   0.49385   0.00000  Uiso   1.00
O1468  O     0.27283   0.21267   0.40336   0.00000  Uiso   1.00
O1469  O     0.44727   0.31193   0.90112   0.00000  Uiso   1.00
O1470  O     0.27723   0.21287   0.89971   0.00000  Uiso   1.00
O1471  O     0.47782   0.38168   0.77483   0.00000  Uiso   1.00
O1472  O     0.26949   0.21262   0.74507   0.00000  Uiso   1.00
O1473  O     0.44754   0.31470   0.74038   0.00000  Uiso   1.00
O1474  O     0.27070   0.21406   0.99258   0.00000  Uiso   1.00
O1475  O     0.27581   0.21320   0.65404   0.00000  Uiso   1.00
O1476  O     0.44571   0.31980   0.64744   0.00000  Uiso   1.00
O1477  O     0.48097   0.38370   0.52483   0.00000  Uiso   1.00
O1478  O     0.48293   0.38276   0.61732   0.00000  Uiso   1.00
O1479  O     0.47649   0.37683   0.86517   0.00000  Uiso   1.00
O1480  O     0.44523   0.31370   0.99409   0.00000  Uiso   1.00
O1481  O     0.30385   0.48501   0.37110   0.00000  Uiso   1.00
O1482  O     0.30090   0.48193   0.11960   0.00000  Uiso   1.00
O1483  O     0.27440   0.54764   0.40524   0.00000  Uiso   1.00
O1484  O     0.27633   0.54768   0.15397   0.00000  Uiso   1.00
O1485  O     0.27525   0.54807   0.24538   0.00000  Uiso   1.00
O1486  O     0.30262   0.48421   0.02985   0.00000  Uiso   1.00
O1487  O     0.30505   0.48394   0.27942   0.00000  Uiso   1.00
O1488  O     0.27517   0.54662   0.49692   0.00000  Uiso   1.00
O1489  O     0.30188   0.48606   0.86998   0.00000  Uiso   1.00
O1490  O     0.30486   0.48803   0.77810   0.00000  Uiso   1.00
O1491  O     0.30522   0.48431   0.62291   0.00000  Uiso   1.00
O1492  O     0.27320   0.55135   0.90148   0.00000  Uiso   1.00
O1493  O     0.27890   0.54933   0.65391   0.00000  Uiso   1.00
O1494  O     0.30611   0.48188   0.53059   0.00000  Uiso   1.00
O1495  O     0.27261   0.54969   0.74639   0.00000  Uiso   1.00
O1496  O     0.26876   0.55118   0.99360   0.00000  Uiso   1.00
O1497  O     0.47865   0.71526   0.37071   0.00000  Uiso   1.00
O1498  O     0.44790   0.65302   0.39912   0.00000  Uiso   1.00
O1499  O     0.48148   0.72043   0.27852   0.00000  Uiso   1.00
O1500  O     0.44665   0.65246   0.49339   0.00000  Uiso   1.00
O1501  O     0.44693   0.65391   0.24441   0.00000  Uiso   1.00
O1502  O     0.44648   0.65114   0.15383   0.00000  Uiso   1.00
O1503  O     0.47503   0.71514   0.02601   0.00000  Uiso   1.00
O1504  O     0.47680   0.71561   0.11971   0.00000  Uiso   1.00
O1505  O     0.47371   0.70747   0.86858   0.00000  Uiso   1.00
O1506  O     0.44607   0.64381   0.90226   0.00000  Uiso   1.00
O1507  O     0.48078   0.71574   0.77688   0.00000  Uiso   1.00
O1508  O     0.44596   0.65082   0.74438   0.00000  Uiso   1.00
O1509  O     0.44844   0.64620   0.65474   0.00000  Uiso   1.00
O1510  O     0.47936   0.71546   0.53343   0.00000  Uiso   1.00
O1511  O     0.47897   0.71151   0.62458   0.00000  Uiso   1.00
O1512  O     0.44533   0.64825   0.99349   0.00000  Uiso   1.00
O1513  O     0.30868   0.82179   0.37026   0.00000  Uiso   1.00
O1514  O     0.44380   0.98596   0.40399   0.00000  Uiso   1.00
O1515  O     0.27484   0.88562   0.24795   0.00000  Uiso   1.00
O1516  O     0.30817   0.82484   0.03027   0.00000  Uiso   1.00
O1517  O     0.44574   0.98698   0.24701   0.00000  Uiso   1.00
O1518  O     0.27188   0.88571   0.15658   0.00000  Uiso   1.00
O1519  O     0.44664   0.98727   0.15513   0.00000  Uiso   1.00
O1520  O     0.30472   0.82226   0.12298   0.00000  Uiso   1.00
O1521  O     0.27552   0.88475   0.40703   0.00000  Uiso   1.00
O1522  O     0.30629   0.81939   0.27680   0.00000  Uiso   1.00
O1523  O     0.44515   0.98673   0.49574   0.00000  Uiso   1.00
O1524  O     0.26972   0.88453   0.49876   0.00000  Uiso   1.00
O1525  O     0.30703   0.81876   0.86951   0.00000  Uiso   1.00
O1526  O     0.44405   0.98669   0.90570   0.00000  Uiso   1.00
O1527  O     0.27084   0.88098   0.74503   0.00000  Uiso   1.00
O1528  O     0.30376   0.81666   0.53349   0.00000  Uiso   1.00
O1529  O     0.44516   0.98768   0.74662   0.00000  Uiso   1.00
O1530  O     0.27320   0.88127   0.65432   0.00000  Uiso   1.00
O1531  O     0.44404   0.99001   0.65465   0.00000  Uiso   1.00
O1532  O     0.30155   0.81376   0.62324   0.00000  Uiso   1.00
O1533  O     0.30489   0.81879   0.77820   0.00000  Uiso   1.00
O1534  O     0.27524   0.88267   0.90311   0.00000  Uiso   1.00
O1535  O     0.44144   0.98956   0.99820   0.00000  Uiso   1.00
O1536  O     0.26911   0.88483   0.99505   0.00000  Uiso   1.00
O1537  O     0.55561   0.01611   0.27993   0.00000  Uiso   1.00
O1538  O     0.72914   0.11735   0.27687   0.00000  Uiso   1.00
O1539  O     0.72738   0.12135   0.12250   0.00000  Uiso   1.00
O1540  O     0.69372   0.18645   0.15298   0.00000  Uiso   1.00
O1541  O     0.55339   0.01548   0.12037   0.00000  Uiso   1.00
O1542  O     0.72967   0.11738   0.02892   0.00000  Uiso   1.00
O1543  O     0.55502   0.01644   0.02808   0.00000  Uiso   1.00
O1544  O     0.69446   0.18528   0.24677   0.00000  Uiso   1.00
O1545  O     0.72770   0.11836   0.36990   0.00000  Uiso   1.00
O1546  O     0.69326   0.18500   0.40386   0.00000  Uiso   1.00
O1547  O     0.55546   0.01383   0.37167   0.00000  Uiso   1.00
O1548  O     0.69372   0.17969   0.49645   0.00000  Uiso   1.00
O1549  O     0.55143   0.02158   0.78197   0.00000  Uiso   1.00
O1550  O     0.72790   0.11857   0.61889   0.00000  Uiso   1.00
O1551  O     0.69704   0.18420   0.65226   0.00000  Uiso   1.00
O1552  O     0.55667   0.01365   0.62243   0.00000  Uiso   1.00
O1553  O     0.72491   0.11830   0.52788   0.00000  Uiso   1.00
O1554  O     0.55583   0.01669   0.52977   0.00000  Uiso   1.00
O1555  O     0.69438   0.18079   0.74466   0.00000  Uiso   1.00
O1556  O     0.72247   0.12090   0.87338   0.00000  Uiso   1.00
O1557  O     0.69516   0.18681   0.90731   0.00000  Uiso   1.00
O1558  O     0.55389   0.01682   0.87352   0.00000  Uiso   1.00
O1559  O     0.72581   0.11701   0.78019   0.00000  Uiso   1.00
O1560  O     0.69510   0.18111   0.99742   0.00000  Uiso   1.00
O1561  O     0.55610   0.34414   0.27867   0.00000  Uiso   1.00
O1562  O     0.55410   0.34577   0.12071   0.00000  Uiso   1.00
O1563  O     0.55242   0.35224   0.36760   0.00000  Uiso   1.00
O1564  O     0.52423   0.28497   0.40245   0.00000  Uiso   1.00
O1565  O     0.55349   0.34833   0.02958   0.00000  Uiso   1.00
O1566  O     0.51807   0.28073   0.15553   0.00000  Uiso   1.00
O1567  O     0.51625   0.28288   0.24604   0.00000  Uiso   1.00
O1568  O     0.51834   0.28469   0.49501   0.00000  Uiso   1.00
O1569  O     0.55607   0.34892   0.77771   0.00000  Uiso   1.00
O1570  O     0.55568   0.34491   0.61744   0.00000  Uiso   1.00
O1571  O     0.55526   0.34824   0.86730   0.00000  Uiso   1.00
O1572  O     0.52548   0.28139   0.90294   0.00000  Uiso   1.00
O1573  O     0.52386   0.28488   0.74079   0.00000  Uiso   1.00
O1574  O     0.55501   0.34626   0.52611   0.00000  Uiso   1.00
O1575  O     0.51855   0.28120   0.99507   0.00000  Uiso   1.00
O1576  O     0.51986   0.28216   0.64762   0.00000  Uiso   1.00
O1577  O     0.69589   0.51320   0.24222   0.00000  Uiso   1.00
O1578  O     0.72799   0.44847   0.02656   0.00000  Uiso   1.00
O1579  O     0.69523   0.51304   0.49309   0.00000  Uiso   1.00
O1580  O     0.72759   0.44960   0.27740   0.00000  Uiso   1.00
O1581  O     0.73069   0.44775   0.12134   0.00000  Uiso   1.00
O1582  O     0.69570   0.51592   0.40054   0.00000  Uiso   1.00
O1583  O     0.72963   0.44973   0.36677   0.00000  Uiso   1.00
O1584  O     0.69562   0.51232   0.15269   0.00000  Uiso   1.00
O1585  O     0.69499   0.51317   0.74497   0.00000  Uiso   1.00
O1586  O     0.72258   0.45105   0.52481   0.00000  Uiso   1.00
O1587  O     0.72962   0.44804   0.77762   0.00000  Uiso   1.00
O1588  O     0.72968   0.45004   0.61835   0.00000  Uiso   1.00
O1589  O     0.69427   0.51466   0.90257   0.00000  Uiso   1.00
O1590  O     0.72898   0.45129   0.87187   0.00000  Uiso   1.00
O1591  O     0.69546   0.51487   0.65334   0.00000  Uiso   1.00
O1592  O     0.69628   0.51227   0.99505   0.00000  Uiso   1.00
O1593  O     0.52843   0.62091   0.40263   0.00000  Uiso   1.00
O1594  O     0.55843   0.68427   0.27505   0.00000  Uiso   1.00
O1595  O     0.55649   0.68532   0.36925   0.00000  Uiso   1.00
O1596  O     0.72515   0.78615   0.27981   0.00000  Uiso   1.00
O1597  O     0.55497   0.68483   0.02735   0.00000  Uiso   1.00
O1598  O     0.73005   0.78762   0.37331   0.00000  Uiso   1.00
O1599  O     0.52391   0.61913   0.15234   0.00000  Uiso   1.00
O1600  O     0.52448   0.62119   0.24611   0.00000  Uiso   1.00
O1601  O     0.72640   0.78916   0.12423   0.00000  Uiso   1.00
O1602  O     0.55328   0.68576   0.11809   0.00000  Uiso   1.00
O1603  O     0.72066   0.78973   0.03367   0.00000  Uiso   1.00
O1604  O     0.51952   0.61870   0.49284   0.00000  Uiso   1.00
O1605  O     0.72365   0.78990   0.87283   0.00000  Uiso   1.00
O1606  O     0.55572   0.67851   0.77752   0.00000  Uiso   1.00
O1607  O     0.55171   0.68179   0.86861   0.00000  Uiso   1.00
O1608  O     0.72118   0.78977   0.78011   0.00000  Uiso   1.00
O1609  O     0.52598   0.61470   0.90587   0.00000  Uiso   1.00
O1610  O     0.55688   0.67941   0.53140   0.00000  Uiso   1.00
O1611  O     0.52506   0.61651   0.65075   0.00000  Uiso   1.00
O1612  O     0.52155   0.61646   0.74479   0.00000  Uiso   1.00
O1613  O     0.72739   0.78649   0.62282   0.00000  Uiso   1.00
O1614  O     0.55407   0.68282   0.62258   0.00000  Uiso   1.00
O1615  O     0.72461   0.78689   0.53052   0.00000  Uiso   1.00
O1616  O     0.52389   0.61778   0.99740   0.00000  Uiso   1.00
O1617  O     0.69245   0.85368   0.00156   0.00000  Uiso   1.00
O1618  O     0.52151   0.95276   0.15510   0.00000  Uiso   1.00
O1619  O     0.69418   0.85197   0.15655   0.00000  Uiso   1.00
O1620  O     0.51938   0.95165   0.24684   0.00000  Uiso   1.00
O1621  O     0.69503   0.84849   0.25041   0.00000  Uiso   1.00
O1622  O     0.52190   0.94971   0.40482   0.00000  Uiso   1.00
O1623  O     0.69687   0.85333   0.40628   0.00000  Uiso   1.00
O1624  O     0.69689   0.85302   0.49891   0.00000  Uiso   1.00
O1625  O     0.52491   0.95343   0.49705   0.00000  Uiso   1.00
O1626  O     0.52162   0.95310   0.65629   0.00000  Uiso   1.00
O1627  O     0.69340   0.85260   0.65670   0.00000  Uiso   1.00
O1628  O     0.52241   0.95773   0.74831   0.00000  Uiso   1.00
O1629  O     0.69221   0.85386   0.74816   0.00000  Uiso   1.00
O1630  O     0.52024   0.95256   0.90634   0.00000  Uiso   1.00
O1631  O     0.69377   0.85542   0.90981   0.00000  Uiso   1.00
O1632  O     0.51714   0.95275   0.99744   0.00000  Uiso   1.00
O1633  O     0.80414   0.15274   0.27993   0.00000  Uiso   1.00
O1634  O     0.80562   0.15304   0.37121   0.00000  Uiso   1.00
O1635  O     0.97768   0.04934   0.37368   0.00000  Uiso   1.00
O1636  O     0.97597   0.05038   0.03199   0.00000  Uiso   1.00
O1637  O     0.80539   0.15569   0.03028   0.00000  Uiso   1.00
O1638  O     0.97287   0.04586   0.12543   0.00000  Uiso   1.00
O1639  O     0.80476   0.15560   0.12491   0.00000  Uiso   1.00
O1640  O     0.97735   0.05188   0.28051   0.00000  Uiso   1.00
O1641  O     0.80433   0.15249   0.77934   0.00000  Uiso   1.00
O1642  O     0.80150   0.14879   0.87011   0.00000  Uiso   1.00
O1643  O     0.97818   0.04803   0.87177   0.00000  Uiso   1.00
O1644  O     0.97433   0.04604   0.52931   0.00000  Uiso   1.00
O1645  O     0.80363   0.15370   0.52753   0.00000  Uiso   1.00
O1646  O     0.97804   0.04692   0.62124   0.00000  Uiso   1.00
O1647  O     0.80367   0.15308   0.61894   0.00000  Uiso   1.00
O1648  O     0.97674   0.04854   0.78005   0.00000  Uiso   1.00
O1649  O     0.94986   0.31052   0.49496   0.00000  Uiso   1.00
O1650  O     0.76919   0.21791   0.40383   0.00000  Uiso   1.00
O1651  O     0.97983   0.37773   0.37329   0.00000  Uiso   1.00
O1652  O     0.94651   0.31322   0.40537   0.00000  Uiso   1.00
O1653  O     0.77015   0.21860   0.24844   0.00000  Uiso   1.00
O1654  O     0.94765   0.31587   0.24618   0.00000  Uiso   1.00
O1655  O     0.77306   0.21812   0.15503   0.00000  Uiso   1.00
O1656  O     0.94700   0.31409   0.15539   0.00000  Uiso   1.00
O1657  O     0.97251   0.37671   0.02945   0.00000  Uiso   1.00
O1658  O     0.97695   0.37684   0.12136   0.00000  Uiso   1.00
O1659  O     0.97908   0.37821   0.27928   0.00000  Uiso   1.00
O1660  O     0.77209   0.21380   0.49548   0.00000  Uiso   1.00
O1661  O     0.94761   0.31513   0.90400   0.00000  Uiso   1.00
O1662  O     0.97900   0.37850   0.78164   0.00000  Uiso   1.00
O1663  O     0.77515   0.21478   0.90317   0.00000  Uiso   1.00
O1664  O     0.76892   0.21467   0.74500   0.00000  Uiso   1.00
O1665  O     0.94668   0.31322   0.74831   0.00000  Uiso   1.00
O1666  O     0.77493   0.21454   0.65358   0.00000  Uiso   1.00
O1667  O     0.94606   0.31296   0.65360   0.00000  Uiso   1.00
O1668  O     0.97536   0.37640   0.52957   0.00000  Uiso   1.00
O1669  O     0.97937   0.37520   0.62040   0.00000  Uiso   1.00
O1670  O     0.97675   0.37892   0.87328   0.00000  Uiso   1.00
O1671  O     0.76884   0.21570   0.99439   0.00000  Uiso   1.00
O1672  O     0.94925   0.31159   0.99529   0.00000  Uiso   1.00
O1673  O     0.80503   0.47881   0.27516   0.00000  Uiso   1.00
O1674  O     0.80672   0.48415   0.36797   0.00000  Uiso   1.00
O1675  O     0.77289   0.54342   0.24592   0.00000  Uiso   1.00
O1676  O     0.80705   0.48621   0.12099   0.00000  Uiso   1.00
O1677  O     0.77460   0.54715   0.40115   0.00000  Uiso   1.00
O1678  O     0.77337   0.54538   0.15330   0.00000  Uiso   1.00
O1679  O     0.77051   0.54596   0.49362   0.00000  Uiso   1.00
O1680  O     0.80510   0.47931   0.03010   0.00000  Uiso   1.00
O1681  O     0.80280   0.48336   0.87115   0.00000  Uiso   1.00
O1682  O     0.80548   0.48372   0.61933   0.00000  Uiso   1.00
O1683  O     0.80580   0.48430   0.77791   0.00000  Uiso   1.00
O1684  O     0.77116   0.54688   0.90293   0.00000  Uiso   1.00
O1685  O     0.77189   0.54709   0.65102   0.00000  Uiso   1.00
O1686  O     0.80512   0.48336   0.52704   0.00000  Uiso   1.00
O1687  O     0.77301   0.54761   0.74352   0.00000  Uiso   1.00
O1688  O     0.77428   0.54416   0.99783   0.00000  Uiso   1.00
O1689  O     0.97539   0.71364   0.37036   0.00000  Uiso   1.00
O1690  O     0.94575   0.64926   0.40739   0.00000  Uiso   1.00
O1691  O     0.97734   0.71531   0.27983   0.00000  Uiso   1.00
O1692  O     0.94434   0.65137   0.24920   0.00000  Uiso   1.00
O1693  O     0.94462   0.64887   0.15590   0.00000  Uiso   1.00
O1694  O     0.97602   0.71699   0.03013   0.00000  Uiso   1.00
O1695  O     0.97446   0.71385   0.12086   0.00000  Uiso   1.00
O1696  O     0.94512   0.64959   0.49769   0.00000  Uiso   1.00
O1697  O     0.97792   0.71810   0.87097   0.00000  Uiso   1.00
O1698  O     0.94459   0.65023   0.90085   0.00000  Uiso   1.00
O1699  O     0.94365   0.65301   0.99315   0.00000  Uiso   1.00
O1700  O     0.97474   0.71965   0.77758   0.00000  Uiso   1.00
O1701  O     0.94592   0.65396   0.74607   0.00000  Uiso   1.00
O1702  O     0.94233   0.65359   0.65289   0.00000  Uiso   1.00
O1703  O     0.97016   0.71307   0.53042   0.00000  Uiso   1.00
O1704  O     0.97508   0.71361   0.62135   0.00000  Uiso   1.00
O1705  O     0.80479   0.81938   0.37536   0.00000  Uiso   1.00
O1706  O     0.94496   0.98345   0.40618   0.00000  Uiso   1.00
O1707  O     0.77188   0.88220   0.25075   0.00000  Uiso   1.00
O1708  O     0.80124   0.81714   0.03300   0.00000  Uiso   1.00
O1709  O     0.94563   0.98525   0.24667   0.00000  Uiso   1.00
O1710  O     0.77060   0.88570   0.15834   0.00000  Uiso   1.00
O1711  O     0.94748   0.97952   0.15484   0.00000  Uiso   1.00
O1712  O     0.80419   0.82219   0.12435   0.00000  Uiso   1.00
O1713  O     0.80471   0.81766   0.28317   0.00000  Uiso   1.00
O1714  O     0.77343   0.88475   0.41056   0.00000  Uiso   1.00
O1715  O     0.94443   0.98350   0.49648   0.00000  Uiso   1.00
O1716  O     0.80011   0.81913   0.87549   0.00000  Uiso   1.00
O1717  O     0.77202   0.88286   0.74906   0.00000  Uiso   1.00
O1718  O     0.80176   0.81982   0.53378   0.00000  Uiso   1.00
O1719  O     0.94322   0.98573   0.74674   0.00000  Uiso   1.00
O1720  O     0.77024   0.88603   0.65629   0.00000  Uiso   1.00
O1721  O     0.94077   0.98590   0.65641   0.00000  Uiso   1.00
O1722  O     0.80282   0.82173   0.62522   0.00000  Uiso   1.00
O1723  O     0.77008   0.88428   0.90704   0.00000  Uiso   1.00
O1724  O     0.80135   0.81560   0.78193   0.00000  Uiso   1.00
O1725  O     0.94461   0.98160   0.90293   0.00000  Uiso   1.00
O1726  O     0.94598   0.98522   0.99419   0.00000  Uiso   1.00
O1727  O     0.77181   0.88263   0.99772   0.00000  Uiso   1.00
O1728  O     0.76989   0.88353   0.50296   0.00000  Uiso   1.00
O1729  O     0.24156   0.17926   0.32354   0.00000  Uiso   1.00
O1730  O     0.00724   0.02087   0.20015   0.00000  Uiso   1.00
O1731  O     0.24243   0.18414   0.07279   0.00000  Uiso   1.00
O1732  O     0.00763   0.01797   0.45134   0.00000  Uiso   1.00
O1733  O     0.24005   0.18331   0.82183   0.00000  Uiso   1.00
O1734  O     0.24076   0.18345   0.57402   0.00000  Uiso   1.00
O1735  O     0.00665   0.01653   0.70075   0.00000  Uiso   1.00
O1736  O     0.01034   0.01892   0.94994   0.00000  Uiso   1.00
O1737  O     0.01123   0.34720   0.45099   0.00000  Uiso   1.00
O1738  O     0.01090   0.34843   0.20139   0.00000  Uiso   1.00
O1739  O     0.00834   0.34705   0.69901   0.00000  Uiso   1.00
O1740  O     0.01000   0.34768   0.94947   0.00000  Uiso   1.00
O1741  O     0.24162   0.51794   0.32632   0.00000  Uiso   1.00
O1742  O     0.24154   0.52129   0.07765   0.00000  Uiso   1.00
O1743  O     0.24223   0.51882   0.57513   0.00000  Uiso   1.00
O1744  O     0.23917   0.52182   0.82410   0.00000  Uiso   1.00
O1745  O     0.00730   0.68565   0.45014   0.00000  Uiso   1.00
O1746  O     0.00592   0.68633   0.20112   0.00000  Uiso   1.00
O1747  O     0.00696   0.68843   0.94913   0.00000  Uiso   1.00
O1748  O     0.00671   0.68961   0.69879   0.00000  Uiso   1.00
O1749  O     0.24226   0.85561   0.07642   0.00000  Uiso   1.00
O1750  O     0.24500   0.85633   0.32479   0.00000  Uiso   1.00
O1751  O     0.24531   0.85277   0.82723   0.00000  Uiso   1.00
O1752  O     0.23881   0.85440   0.57711   0.00000  Uiso   1.00
O1753  O     0.25900   0.14409   0.44906   0.00000  Uiso   1.00
O1754  O     0.26146   0.14757   0.19835   0.00000  Uiso   1.00
O1755  O     0.26135   0.14727   0.94841   0.00000  Uiso   1.00
O1756  O     0.26242   0.14632   0.69985   0.00000  Uiso   1.00
O1757  O     0.48745   0.31511   0.32339   0.00000  Uiso   1.00
O1758  O     0.48990   0.31247   0.07468   0.00000  Uiso   1.00
O1759  O     0.48990   0.31374   0.57096   0.00000  Uiso   1.00
O1760  O     0.49157   0.31243   0.82070   0.00000  Uiso   1.00
O1761  O     0.25855   0.47998   0.45274   0.00000  Uiso   1.00
O1762  O     0.25463   0.47879   0.20004   0.00000  Uiso   1.00
O1763  O     0.25557   0.48432   0.95090   0.00000  Uiso   1.00
O1764  O     0.25893   0.48205   0.70064   0.00000  Uiso   1.00
O1765  O     0.49323   0.65379   0.32233   0.00000  Uiso   1.00
O1766  O     0.48911   0.65063   0.07216   0.00000  Uiso   1.00
O1767  O     0.48933   0.64431   0.82301   0.00000  Uiso   1.00
O1768  O     0.49256   0.64640   0.57426   0.00000  Uiso   1.00
O1769  O     0.25986   0.81648   0.44957   0.00000  Uiso   1.00
O1770  O     0.48870   0.98486   0.07607   0.00000  Uiso   1.00
O1771  O     0.25862   0.81777   0.20159   0.00000  Uiso   1.00
O1772  O     0.48984   0.98297   0.32535   0.00000  Uiso   1.00
O1773  O     0.26374   0.81753   0.95204   0.00000  Uiso   1.00
O1774  O     0.49043   0.98293   0.82692   0.00000  Uiso   1.00
O1775  O     0.49133   0.98341   0.57553   0.00000  Uiso   1.00
O1776  O     0.25811   0.81341   0.69981   0.00000  Uiso   1.00
O1777  O     0.73908   0.18627   0.32432   0.00000  Uiso   1.00
O1778  O     0.50928   0.01810   0.20253   0.00000  Uiso   1.00
O1779  O     0.50988   0.02039   0.44982   0.00000  Uiso   1.00
O1780  O     0.74034   0.18600   0.07482   0.00000  Uiso   1.00
O1781  O     0.73816   0.18462   0.82433   0.00000  Uiso   1.00
O1782  O     0.50835   0.02273   0.70176   0.00000  Uiso   1.00
O1783  O     0.73911   0.18498   0.57510   0.00000  Uiso   1.00
O1784  O     0.50838   0.01936   0.95044   0.00000  Uiso   1.00
O1785  O     0.50896   0.34868   0.19788   0.00000  Uiso   1.00
O1786  O     0.50797   0.35099   0.44736   0.00000  Uiso   1.00
O1787  O     0.51288   0.35013   0.69584   0.00000  Uiso   1.00
O1788  O     0.50848   0.34757   0.94885   0.00000  Uiso   1.00
O1789  O     0.74364   0.51396   0.07371   0.00000  Uiso   1.00
O1790  O     0.74418   0.51728   0.32087   0.00000  Uiso   1.00
O1791  O     0.73843   0.51698   0.57211   0.00000  Uiso   1.00
O1792  O     0.74038   0.51557   0.82331   0.00000  Uiso   1.00
O1793  O     0.50951   0.68623   0.44916   0.00000  Uiso   1.00
O1794  O     0.50879   0.68867   0.19727   0.00000  Uiso   1.00
O1795  O     0.50847   0.68290   0.94569   0.00000  Uiso   1.00
O1796  O     0.51176   0.68220   0.69799   0.00000  Uiso   1.00
O1797  O     0.74241   0.85307   0.32830   0.00000  Uiso   1.00
O1798  O     0.73872   0.85651   0.07922   0.00000  Uiso   1.00
O1799  O     0.73872   0.85643   0.82917   0.00000  Uiso   1.00
O1800  O     0.73934   0.85028   0.57635   0.00000  Uiso   1.00
O1801  O     0.75942   0.14935   0.45056   0.00000  Uiso   1.00
O1802  O     0.75988   0.15126   0.19969   0.00000  Uiso   1.00
O1803  O     0.75899   0.15027   0.94954   0.00000  Uiso   1.00
O1804  O     0.75758   0.14833   0.69925   0.00000  Uiso   1.00
O1805  O     0.99302   0.31353   0.07519   0.00000  Uiso   1.00
O1806  O     0.99256   0.31053   0.32475   0.00000  Uiso   1.00
O1807  O     0.99248   0.31211   0.82339   0.00000  Uiso   1.00
O1808  O     0.99281   0.31057   0.57452   0.00000  Uiso   1.00
O1809  O     0.75764   0.47835   0.44640   0.00000  Uiso   1.00
O1810  O     0.75874   0.47875   0.19875   0.00000  Uiso   1.00
O1811  O     0.75859   0.48100   0.94881   0.00000  Uiso   1.00
O1812  O     0.76127   0.47951   0.69722   0.00000  Uiso   1.00
O1813  O     0.98924   0.64884   0.07439   0.00000  Uiso   1.00
O1814  O     0.99160   0.64936   0.32726   0.00000  Uiso   1.00
O1815  O     0.98952   0.65303   0.82477   0.00000  Uiso   1.00
O1816  O     0.98931   0.65106   0.57534   0.00000  Uiso   1.00
O1817  O     0.76003   0.81966   0.45419   0.00000  Uiso   1.00
O1818  O     0.75988   0.81571   0.20168   0.00000  Uiso   1.00
O1819  O     0.99003   0.98401   0.32472   0.00000  Uiso   1.00
O1820  O     0.99069   0.98309   0.07313   0.00000  Uiso   1.00
O1821  O     0.75178   0.81542   0.95344   0.00000  Uiso   1.00
O1822  O     0.99147   0.98182   0.82588   0.00000  Uiso   1.00
O1823  O     0.98721   0.97977   0.57455   0.00000  Uiso   1.00
O1824  O     0.75500   0.81631   0.70213   0.00000  Uiso   1.00
