data_final_Cl-Al-SABVOH01
_audit_creation_date              2022-12-15
_audit_creation_method            'Materials Studio'
_symmetry_space_group_name_H-M    'P1'
_symmetry_Int_Tables_number       1
_symmetry_cell_setting            triclinic
loop_
_symmetry_equiv_pos_as_xyz
  x,y,z
_cell_length_a                    34.0544
_cell_length_b                    36.8037
_cell_length_c                    26.3503
_cell_angle_alpha                 90.0000
_cell_angle_beta                  90.0000
_cell_angle_gamma                 90.0000
loop_
_atom_site_label
_atom_site_type_symbol
_atom_site_fract_x
_atom_site_fract_y
_atom_site_fract_z
_atom_site_U_iso_or_equiv
_atom_site_adp_type
_atom_site_occupancy
Al1    Al    0.24799   0.16516   0.10723   0.00000  Uiso   1.00
Al2    Al    0.24976   0.16157   0.23319   0.00000  Uiso   1.00
Al3    Al    0.24948   0.16301   0.35834   0.00000  Uiso   1.00
Al4    Al    0.24607   0.16269   0.48436   0.00000  Uiso   1.00
Al5    Al    0.24678   0.16740   0.85767   0.00000  Uiso   1.00
Al6    Al    0.24692   0.16603   0.60948   0.00000  Uiso   1.00
Al7    Al    0.24949   0.16398   0.98279   0.00000  Uiso   1.00
Al8    Al    0.24469   0.16466   0.73423   0.00000  Uiso   1.00
Al9    Al    0.24755   0.50203   0.35685   0.00000  Uiso   1.00
Al10   Al    0.24676   0.49722   0.10620   0.00000  Uiso   1.00
Al11   Al    0.24739   0.49680   0.23017   0.00000  Uiso   1.00
Al12   Al    0.24710   0.49764   0.73372   0.00000  Uiso   1.00
Al13   Al    0.24857   0.50420   0.60614   0.00000  Uiso   1.00
Al14   Al    0.24685   0.50061   0.85730   0.00000  Uiso   1.00
Al15   Al    0.24629   0.49573   0.98201   0.00000  Uiso   1.00
Al16   Al    0.24878   0.83592   0.35136   0.00000  Uiso   1.00
Al17   Al    0.24528   0.83233   0.47737   0.00000  Uiso   1.00
Al18   Al    0.24727   0.83207   0.22760   0.00000  Uiso   1.00
Al19   Al    0.24988   0.83927   0.10394   0.00000  Uiso   1.00
Al20   Al    0.24898   0.82933   0.97961   0.00000  Uiso   1.00
Al21   Al    0.24926   0.83105   0.72733   0.00000  Uiso   1.00
Al22   Al    0.24538   0.83962   0.60264   0.00000  Uiso   1.00
Al23   Al    0.00024   0.99525   0.85968   0.00000  Uiso   1.00
Al24   Al    0.49781   0.00078   0.23729   0.00000  Uiso   1.00
Al25   Al    0.49893   0.00122   0.36248   0.00000  Uiso   1.00
Al26   Al    0.49913   0.00146   0.98528   0.00000  Uiso   1.00
Al27   Al    0.49642   0.00517   0.73402   0.00000  Uiso   1.00
Al28   Al    0.49935   0.00233   0.61068   0.00000  Uiso   1.00
Al29   Al    0.49704   0.33123   0.36088   0.00000  Uiso   1.00
Al30   Al    0.49796   0.33460   0.11140   0.00000  Uiso   1.00
Al31   Al    0.49703   0.33280   0.23411   0.00000  Uiso   1.00
Al32   Al    0.49336   0.33305   0.48732   0.00000  Uiso   1.00
Al33   Al    0.49735   0.33604   0.73585   0.00000  Uiso   1.00
Al34   Al    0.49690   0.32976   0.60927   0.00000  Uiso   1.00
Al35   Al    0.49804   0.33171   0.98436   0.00000  Uiso   1.00
Al36   Al    0.25090   0.49364   0.48072   0.00000  Uiso   1.00
Al37   Al    0.49848   0.66768   0.22931   0.00000  Uiso   1.00
Al38   Al    0.49816   0.66630   0.10464   0.00000  Uiso   1.00
Al39   Al    0.49456   0.66855   0.48024   0.00000  Uiso   1.00
Al40   Al    0.49590   0.66258   0.35638   0.00000  Uiso   1.00
Al41   Al    0.49767   0.67157   0.72670   0.00000  Uiso   1.00
Al42   Al    0.49741   0.66735   0.97904   0.00000  Uiso   1.00
Al43   Al    0.49915   0.66695   0.85412   0.00000  Uiso   1.00
Al44   Al    0.49556   0.66676   0.60485   0.00000  Uiso   1.00
Al45   Al    0.49585   0.99533   0.48666   0.00000  Uiso   1.00
Al46   Al    0.49877   0.99901   0.11234   0.00000  Uiso   1.00
Al47   Al    0.25058   0.83635   0.85307   0.00000  Uiso   1.00
Al48   Al    0.74729   0.16626   0.11322   0.00000  Uiso   1.00
Al49   Al    0.74644   0.16485   0.23947   0.00000  Uiso   1.00
Al50   Al    0.74891   0.16260   0.48639   0.00000  Uiso   1.00
Al51   Al    0.74597   0.16713   0.36274   0.00000  Uiso   1.00
Al52   Al    0.74892   0.16666   0.86202   0.00000  Uiso   1.00
Al53   Al    0.74809   0.16444   0.74004   0.00000  Uiso   1.00
Al54   Al    0.74865   0.16284   0.61224   0.00000  Uiso   1.00
Al55   Al    0.74476   0.16412   0.98777   0.00000  Uiso   1.00
Al56   Al    0.50019   0.00521   0.86229   0.00000  Uiso   1.00
Al57   Al    0.50026   0.33246   0.85838   0.00000  Uiso   1.00
Al58   Al    0.74488   0.49483   0.23113   0.00000  Uiso   1.00
Al59   Al    0.74928   0.49884   0.10564   0.00000  Uiso   1.00
Al60   Al    0.74561   0.49703   0.48099   0.00000  Uiso   1.00
Al61   Al    0.74680   0.49828   0.35642   0.00000  Uiso   1.00
Al62   Al    0.74879   0.50040   0.85687   0.00000  Uiso   1.00
Al63   Al    0.74855   0.49704   0.73123   0.00000  Uiso   1.00
Al64   Al    0.74723   0.49879   0.98162   0.00000  Uiso   1.00
Al65   Al    0.74740   0.49917   0.60673   0.00000  Uiso   1.00
Al66   Al    0.74756   0.83117   0.36279   0.00000  Uiso   1.00
Al67   Al    0.74914   0.83206   0.23533   0.00000  Uiso   1.00
Al68   Al    0.74686   0.83113   0.11082   0.00000  Uiso   1.00
Al69   Al    0.74806   0.83679   0.48725   0.00000  Uiso   1.00
Al70   Al    0.74696   0.82996   0.98720   0.00000  Uiso   1.00
Al71   Al    0.74799   0.83513   0.61218   0.00000  Uiso   1.00
Al72   Al    0.74876   0.83038   0.73518   0.00000  Uiso   1.00
Al73   Al    0.74862   0.83430   0.86094   0.00000  Uiso   1.00
Al74   Al    0.99681   0.00336   0.23695   0.00000  Uiso   1.00
Al75   Al    0.99648   0.00278   0.10920   0.00000  Uiso   1.00
Al76   Al    0.99622   0.00170   0.98430   0.00000  Uiso   1.00
Al77   Al    0.99566   0.33376   0.48256   0.00000  Uiso   1.00
Al78   Al    0.99621   0.32912   0.36041   0.00000  Uiso   1.00
Al79   Al    0.99807   0.32934   0.10984   0.00000  Uiso   1.00
Al80   Al    0.99615   0.33157   0.23613   0.00000  Uiso   1.00
Al81   Al    0.99620   0.33557   0.98419   0.00000  Uiso   1.00
Al82   Al    0.99707   0.33418   0.73464   0.00000  Uiso   1.00
Al83   Al    0.99729   0.33310   0.85787   0.00000  Uiso   1.00
Al84   Al    0.99647   0.33370   0.60841   0.00000  Uiso   1.00
Al85   Al    0.99845   0.66583   0.36404   0.00000  Uiso   1.00
Al86   Al    0.99488   0.66586   0.23512   0.00000  Uiso   1.00
Al87   Al    0.99785   0.66626   0.48605   0.00000  Uiso   1.00
Al88   Al    0.99752   0.66758   0.11169   0.00000  Uiso   1.00
Al89   Al    0.99542   0.66823   0.98535   0.00000  Uiso   1.00
Al90   Al    0.99930   0.66768   0.85972   0.00000  Uiso   1.00
Al91   Al    0.99580   0.66938   0.73682   0.00000  Uiso   1.00
Al92   Al    0.99516   0.66397   0.61402   0.00000  Uiso   1.00
Al93   Al    0.99699   0.99893   0.48708   0.00000  Uiso   1.00
Al94   Al    0.99739   0.99946   0.36018   0.00000  Uiso   1.00
Al95   Al    0.99921   0.99659   0.61147   0.00000  Uiso   1.00
Al96   Al    0.99774   0.99999   0.73557   0.00000  Uiso   1.00
Cl97   Cl    0.13368   0.18937   0.08709   0.00000  Uiso   1.00
Cl98   Cl    0.11035   0.03101   0.19637   0.00000  Uiso   1.00
Cl99   Cl    0.11562   0.01623   0.45385   0.00000  Uiso   1.00
Cl100  Cl    0.13363   0.18952   0.33330   0.00000  Uiso   1.00
Cl101  Cl    0.11490   0.02463   0.70255   0.00000  Uiso   1.00
Cl102  Cl    0.10888   0.02901   0.94772   0.00000  Uiso   1.00
Cl103  Cl    0.13054   0.19451   0.57746   0.00000  Uiso   1.00
Cl104  Cl    0.11306   0.35292   0.20733   0.00000  Uiso   1.00
Cl105  Cl    0.10934   0.36225   0.44719   0.00000  Uiso   1.00
Cl106  Cl    0.10842   0.36127   0.70008   0.00000  Uiso   1.00
Cl107  Cl    0.10764   0.36151   0.94594   0.00000  Uiso   1.00
Cl108  Cl    0.14041   0.20200   0.82560   0.00000  Uiso   1.00
Cl109  Cl    0.12911   0.52028   0.08958   0.00000  Uiso   1.00
Cl110  Cl    0.13707   0.53278   0.32668   0.00000  Uiso   1.00
Cl111  Cl    0.14033   0.53499   0.58055   0.00000  Uiso   1.00
Cl112  Cl    0.13381   0.53072   0.82510   0.00000  Uiso   1.00
Cl113  Cl    0.10519   0.70097   0.19623   0.00000  Uiso   1.00
Cl114  Cl    0.11799   0.68307   0.46600   0.00000  Uiso   1.00
Cl115  Cl    0.11069   0.69855   0.70240   0.00000  Uiso   1.00
Cl116  Cl    0.11377   0.69768   0.95472   0.00000  Uiso   1.00
Cl117  Cl    0.14726   0.86908   0.07257   0.00000  Uiso   1.00
Cl118  Cl    0.13224   0.86075   0.31732   0.00000  Uiso   1.00
Cl119  Cl    0.13502   0.85861   0.57646   0.00000  Uiso   1.00
Cl120  Cl    0.14344   0.86394   0.83141   0.00000  Uiso   1.00
Cl121  Cl    0.37424   0.14800   0.21349   0.00000  Uiso   1.00
Cl122  Cl    0.35988   0.13485   0.44016   0.00000  Uiso   1.00
Cl123  Cl    0.36398   0.14236   0.69849   0.00000  Uiso   1.00
Cl124  Cl    0.36974   0.14378   0.95203   0.00000  Uiso   1.00
Cl125  Cl    0.37981   0.31142   0.08069   0.00000  Uiso   1.00
Cl126  Cl    0.38572   0.29724   0.33073   0.00000  Uiso   1.00
Cl127  Cl    0.39465   0.28802   0.57212   0.00000  Uiso   1.00
Cl128  Cl    0.38420   0.30631   0.81862   0.00000  Uiso   1.00
Cl129  Cl    0.36191   0.46724   0.19582   0.00000  Uiso   1.00
Cl130  Cl    0.36939   0.47565   0.46065   0.00000  Uiso   1.00
Cl131  Cl    0.36621   0.47669   0.70137   0.00000  Uiso   1.00
Cl132  Cl    0.37072   0.47828   0.94869   0.00000  Uiso   1.00
Cl133  Cl    0.38433   0.63870   0.08103   0.00000  Uiso   1.00
Cl134  Cl    0.39586   0.61715   0.31242   0.00000  Uiso   1.00
Cl135  Cl    0.38679   0.63045   0.57258   0.00000  Uiso   1.00
Cl136  Cl    0.38599   0.63377   0.82274   0.00000  Uiso   1.00
Cl137  Cl    0.36523   0.81122   0.19553   0.00000  Uiso   1.00
Cl138  Cl    0.39069   0.97234   0.08182   0.00000  Uiso   1.00
Cl139  Cl    0.39493   0.96831   0.32471   0.00000  Uiso   1.00
Cl140  Cl    0.36417   0.81452   0.44510   0.00000  Uiso   1.00
Cl141  Cl    0.37225   0.80630   0.69312   0.00000  Uiso   1.00
Cl142  Cl    0.38336   0.97938   0.58244   0.00000  Uiso   1.00
Cl143  Cl    0.38989   0.97285   0.82655   0.00000  Uiso   1.00
Cl144  Cl    0.36846   0.81160   0.94775   0.00000  Uiso   1.00
Cl145  Cl    0.60661   0.03210   0.44629   0.00000  Uiso   1.00
Cl146  Cl    0.61501   0.02015   0.21192   0.00000  Uiso   1.00
Cl147  Cl    0.63105   0.19494   0.33395   0.00000  Uiso   1.00
Cl148  Cl    0.62991   0.18873   0.08834   0.00000  Uiso   1.00
Cl149  Cl    0.63453   0.19275   0.57788   0.00000  Uiso   1.00
Cl150  Cl    0.61596   0.02337   0.70799   0.00000  Uiso   1.00
Cl151  Cl    0.61231   0.02991   0.95090   0.00000  Uiso   1.00
Cl152  Cl    0.61727   0.35229   0.19846   0.00000  Uiso   1.00
Cl153  Cl    0.61384   0.35290   0.45249   0.00000  Uiso   1.00
Cl154  Cl    0.61192   0.35983   0.69493   0.00000  Uiso   1.00
Cl155  Cl    0.61424   0.35416   0.94593   0.00000  Uiso   1.00
Cl156  Cl    0.64221   0.20431   0.82224   0.00000  Uiso   1.00
Cl157  Cl    0.63736   0.53292   0.07022   0.00000  Uiso   1.00
Cl158  Cl    0.63311   0.52890   0.32892   0.00000  Uiso   1.00
Cl159  Cl    0.63579   0.53165   0.57101   0.00000  Uiso   1.00
Cl160  Cl    0.63336   0.52252   0.82858   0.00000  Uiso   1.00
Cl161  Cl    0.61582   0.69377   0.19617   0.00000  Uiso   1.00
Cl162  Cl    0.61669   0.69261   0.45316   0.00000  Uiso   1.00
Cl163  Cl    0.61483   0.69839   0.69015   0.00000  Uiso   1.00
Cl164  Cl    0.61770   0.69008   0.94965   0.00000  Uiso   1.00
Cl165  Cl    0.68730   0.93535   0.08997   0.00000  Uiso   1.00
Cl166  Cl    0.67954   0.92380   0.32197   0.00000  Uiso   1.00
Cl167  Cl    0.68734   0.94109   0.59309   0.00000  Uiso   1.00
Cl168  Cl    0.68783   0.94163   0.84541   0.00000  Uiso   1.00
Cl169  Cl    0.85823   0.13457   0.20682   0.00000  Uiso   1.00
Cl170  Cl    0.86359   0.14166   0.45625   0.00000  Uiso   1.00
Cl171  Cl    0.86376   0.13730   0.70314   0.00000  Uiso   1.00
Cl172  Cl    0.86076   0.14412   0.95289   0.00000  Uiso   1.00
Cl173  Cl    0.87952   0.30753   0.08087   0.00000  Uiso   1.00
Cl174  Cl    0.88269   0.30759   0.33267   0.00000  Uiso   1.00
Cl175  Cl    0.87700   0.30678   0.58420   0.00000  Uiso   1.00
Cl176  Cl    0.88625   0.30165   0.82845   0.00000  Uiso   1.00
Cl177  Cl    0.86506   0.47860   0.21087   0.00000  Uiso   1.00
Cl178  Cl    0.86215   0.46629   0.44457   0.00000  Uiso   1.00
Cl179  Cl    0.86504   0.47180   0.69684   0.00000  Uiso   1.00
Cl180  Cl    0.86936   0.48017   0.95792   0.00000  Uiso   1.00
Cl181  Cl    0.87629   0.64603   0.07835   0.00000  Uiso   1.00
Cl182  Cl    0.88656   0.63386   0.33027   0.00000  Uiso   1.00
Cl183  Cl    0.88662   0.63550   0.58449   0.00000  Uiso   1.00
Cl184  Cl    0.88871   0.63403   0.82178   0.00000  Uiso   1.00
Cl185  Cl    0.86301   0.80724   0.45030   0.00000  Uiso   1.00
Cl186  Cl    0.88242   0.97613   0.08527   0.00000  Uiso   1.00
Cl187  Cl    0.89097   0.96536   0.32791   0.00000  Uiso   1.00
Cl188  Cl    0.86554   0.80106   0.19717   0.00000  Uiso   1.00
Cl189  Cl    0.86529   0.81100   0.95296   0.00000  Uiso   1.00
Cl190  Cl    0.88450   0.96681   0.57630   0.00000  Uiso   1.00
Cl191  Cl    0.88911   0.96310   0.82706   0.00000  Uiso   1.00
Cl192  Cl    0.86195   0.80358   0.69597   0.00000  Uiso   1.00
H193   H     0.08947   0.07646   0.11871   0.00000  Uiso   1.00
H194   H     0.15577   0.10669   0.12173   0.00000  Uiso   1.00
H195   H     0.17602   0.06756   0.21692   0.00000  Uiso   1.00
H196   H     0.09707   0.06529   0.37920   0.00000  Uiso   1.00
H197   H     0.16906   0.08549   0.37992   0.00000  Uiso   1.00
H198   H     0.18211   0.05997   0.47624   0.00000  Uiso   1.00
H199   H     0.01239   0.04393   0.42650   0.00000  Uiso   1.00
H200   H     0.00383   0.04979   0.17536   0.00000  Uiso   1.00
H201   H     0.17197   0.07407   0.96642   0.00000  Uiso   1.00
H202   H     0.09001   0.06815   0.62261   0.00000  Uiso   1.00
H203   H     0.14790   0.10637   0.62614   0.00000  Uiso   1.00
H204   H     0.17715   0.07190   0.72556   0.00000  Uiso   1.00
H205   H     0.07919   0.07882   0.87090   0.00000  Uiso   1.00
H206   H     0.14434   0.11510   0.87558   0.00000  Uiso   1.00
H207   H     0.00377   0.04513   0.67129   0.00000  Uiso   1.00
H208   H     0.01729   0.04056   0.91852   0.00000  Uiso   1.00
H209   H     0.07362   0.23619   0.10941   0.00000  Uiso   1.00
H210   H     0.17124   0.25325   0.24351   0.00000  Uiso   1.00
H211   H     0.10626   0.28058   0.25285   0.00000  Uiso   1.00
H212   H     0.00898   0.37266   0.41731   0.00000  Uiso   1.00
H213   H     0.07133   0.23690   0.35531   0.00000  Uiso   1.00
H214   H     0.10793   0.28609   0.49542   0.00000  Uiso   1.00
H215   H     0.17324   0.25908   0.48565   0.00000  Uiso   1.00
H216   H     0.00822   0.37516   0.17331   0.00000  Uiso   1.00
H217   H     0.00074   0.28401   0.04683   0.00000  Uiso   1.00
H218   H     0.16501   0.24626   0.00527   0.00000  Uiso   1.00
H219   H     0.09226   0.39721   0.12414   0.00000  Uiso   1.00
H220   H     0.10411   0.28143   0.00664   0.00000  Uiso   1.00
H221   H     0.00388   0.28669   0.79213   0.00000  Uiso   1.00
H222   H     0.07243   0.24742   0.59486   0.00000  Uiso   1.00
H223   H     0.16438   0.25307   0.74472   0.00000  Uiso   1.00
H224   H     0.09897   0.28525   0.74562   0.00000  Uiso   1.00
H225   H     0.01092   0.37793   0.67269   0.00000  Uiso   1.00
H226   H     0.08222   0.25567   0.84779   0.00000  Uiso   1.00
H227   H     0.00700   0.38157   0.92518   0.00000  Uiso   1.00
H228   H     0.24766   0.21084   0.79188   0.00000  Uiso   1.00
H229   H     0.07097   0.57176   0.10787   0.00000  Uiso   1.00
H230   H     0.16041   0.42325   0.13002   0.00000  Uiso   1.00
H231   H     0.17533   0.40026   0.47264   0.00000  Uiso   1.00
H232   H     0.14102   0.45003   0.36858   0.00000  Uiso   1.00
H233   H     0.16776   0.58591   0.24351   0.00000  Uiso   1.00
H234   H     0.07995   0.41631   0.36505   0.00000  Uiso   1.00
H235   H     0.07330   0.57944   0.35677   0.00000  Uiso   1.00
H236   H     0.17532   0.40504   0.22194   0.00000  Uiso   1.00
H237   H     0.16775   0.58131   0.49752   0.00000  Uiso   1.00
H238   H     0.14614   0.44399   0.61899   0.00000  Uiso   1.00
H239   H     0.07144   0.57716   0.85299   0.00000  Uiso   1.00
H240   H     0.14865   0.44299   0.87492   0.00000  Uiso   1.00
H241   H     0.16453   0.58024   0.99613   0.00000  Uiso   1.00
H242   H     0.07197   0.57497   0.60712   0.00000  Uiso   1.00
H243   H     0.16671   0.58920   0.74565   0.00000  Uiso   1.00
H244   H     0.08465   0.41328   0.61647   0.00000  Uiso   1.00
H245   H     0.08528   0.41253   0.87383   0.00000  Uiso   1.00
H246   H     0.17101   0.40363   0.96806   0.00000  Uiso   1.00
H247   H     0.17589   0.40441   0.72462   0.00000  Uiso   1.00
H248   H     0.13692   0.79083   0.11788   0.00000  Uiso   1.00
H249   H     0.01169   0.71165   0.42437   0.00000  Uiso   1.00
H250   H     0.07710   0.75753   0.11482   0.00000  Uiso   1.00
H251   H     0.17755   0.73895   0.22415   0.00000  Uiso   1.00
H252   H     0.09238   0.73734   0.37456   0.00000  Uiso   1.00
H253   H     0.15052   0.77968   0.37383   0.00000  Uiso   1.00
H254   H     0.18203   0.73085   0.48733   0.00000  Uiso   1.00
H255   H     0.00624   0.71059   0.17378   0.00000  Uiso   1.00
H256   H     0.10757   0.62326   0.24377   0.00000  Uiso   1.00
H257   H     0.00709   0.62478   0.29394   0.00000  Uiso   1.00
H258   H     0.07747   0.75516   0.61771   0.00000  Uiso   1.00
H259   H     0.14795   0.77975   0.87634   0.00000  Uiso   1.00
H260   H     0.10649   0.61896   0.75098   0.00000  Uiso   1.00
H261   H     0.17683   0.73867   0.72468   0.00000  Uiso   1.00
H262   H     0.08533   0.74835   0.87524   0.00000  Uiso   1.00
H263   H     0.01213   0.70772   0.66893   0.00000  Uiso   1.00
H264   H     0.17466   0.73838   0.98015   0.00000  Uiso   1.00
H265   H     0.14481   0.78250   0.62479   0.00000  Uiso   1.00
H266   H     0.01534   0.70874   0.92454   0.00000  Uiso   1.00
H267   H     0.11044   0.61914   0.99855   0.00000  Uiso   1.00
H268   H     0.00109   0.61942   0.54480   0.00000  Uiso   1.00
H269   H     0.00598   0.62451   0.80198   0.00000  Uiso   1.00
H270   H     0.10182   0.61370   0.50422   0.00000  Uiso   1.00
H271   H     0.07846   0.91303   0.09074   0.00000  Uiso   1.00
H272   H     0.16607   0.91926   0.24293   0.00000  Uiso   1.00
H273   H     0.09937   0.94086   0.24930   0.00000  Uiso   1.00
H274   H     0.06908   0.90092   0.34257   0.00000  Uiso   1.00
H275   H     0.24937   0.88334   0.28634   0.00000  Uiso   1.00
H276   H     0.00141   0.95550   0.29176   0.00000  Uiso   1.00
H277   H     0.16147   0.91331   0.48806   0.00000  Uiso   1.00
H278   H     0.09392   0.93980   0.49883   0.00000  Uiso   1.00
H279   H     0.10144   0.94579   0.00005   0.00000  Uiso   1.00
H280   H     0.16740   0.91649   0.00221   0.00000  Uiso   1.00
H281   H     0.07225   0.90590   0.60434   0.00000  Uiso   1.00
H282   H     0.16653   0.91734   0.74473   0.00000  Uiso   1.00
H283   H     0.10041   0.95199   0.74958   0.00000  Uiso   1.00
H284   H     0.07801   0.90952   0.85156   0.00000  Uiso   1.00
H285   H     0.00226   0.95223   0.79377   0.00000  Uiso   1.00
H286   H     0.24277   0.88108   0.53256   0.00000  Uiso   1.00
H287   H     0.43471   0.09927   0.23228   0.00000  Uiso   1.00
H288   H     0.34240   0.10027   0.12489   0.00000  Uiso   1.00
H289   H     0.40205   0.06558   0.12884   0.00000  Uiso   1.00
H290   H     0.42669   0.09318   0.46563   0.00000  Uiso   1.00
H291   H     0.33436   0.07944   0.36945   0.00000  Uiso   1.00
H292   H     0.39884   0.05665   0.37809   0.00000  Uiso   1.00
H293   H     0.25812   0.11954   0.16779   0.00000  Uiso   1.00
H294   H     0.26408   0.12094   0.42449   0.00000  Uiso   1.00
H295   H     0.26213   0.12197   0.67121   0.00000  Uiso   1.00
H296   H     0.43127   0.10373   0.73157   0.00000  Uiso   1.00
H297   H     0.34435   0.09829   0.61778   0.00000  Uiso   1.00
H298   H     0.40632   0.06950   0.62283   0.00000  Uiso   1.00
H299   H     0.33709   0.09246   0.86952   0.00000  Uiso   1.00
H300   H     0.39707   0.05893   0.87642   0.00000  Uiso   1.00
H301   H     0.26224   0.12213   0.91962   0.00000  Uiso   1.00
H302   H     0.43004   0.09339   0.97528   0.00000  Uiso   1.00
H303   H     0.49907   0.05167   0.66840   0.00000  Uiso   1.00
H304   H     0.41528   0.24828   0.24045   0.00000  Uiso   1.00
H305   H     0.32321   0.25726   0.09686   0.00000  Uiso   1.00
H306   H     0.40418   0.39942   0.37802   0.00000  Uiso   1.00
H307   H     0.32614   0.24416   0.34898   0.00000  Uiso   1.00
H308   H     0.35174   0.21891   0.24523   0.00000  Uiso   1.00
H309   H     0.25203   0.21059   0.04470   0.00000  Uiso   1.00
H310   H     0.39309   0.38186   0.11032   0.00000  Uiso   1.00
H311   H     0.25193   0.20642   0.29465   0.00000  Uiso   1.00
H312   H     0.42458   0.24092   0.49007   0.00000  Uiso   1.00
H313   H     0.49816   0.28654   0.05066   0.00000  Uiso   1.00
H314   H     0.49678   0.38185   0.42326   0.00000  Uiso   1.00
H315   H     0.49266   0.28727   0.29878   0.00000  Uiso   1.00
H316   H     0.40918   0.25105   0.74975   0.00000  Uiso   1.00
H317   H     0.39687   0.38318   0.62535   0.00000  Uiso   1.00
H318   H     0.32363   0.25203   0.60130   0.00000  Uiso   1.00
H319   H     0.39741   0.38959   0.87074   0.00000  Uiso   1.00
H320   H     0.34326   0.22948   0.99743   0.00000  Uiso   1.00
H321   H     0.32630   0.25323   0.83946   0.00000  Uiso   1.00
H322   H     0.34946   0.21860   0.75181   0.00000  Uiso   1.00
H323   H     0.40775   0.26029   0.99506   0.00000  Uiso   1.00
H324   H     0.49961   0.28904   0.54689   0.00000  Uiso   1.00
H325   H     0.49977   0.28836   0.79488   0.00000  Uiso   1.00
H326   H     0.25019   0.20783   0.54605   0.00000  Uiso   1.00
H327   H     0.35851   0.20881   0.50371   0.00000  Uiso   1.00
H328   H     0.42275   0.42242   0.22230   0.00000  Uiso   1.00
H329   H     0.36320   0.53981   0.23770   0.00000  Uiso   1.00
H330   H     0.33918   0.41973   0.11207   0.00000  Uiso   1.00
H331   H     0.25944   0.45469   0.17030   0.00000  Uiso   1.00
H332   H     0.33165   0.57863   0.34223   0.00000  Uiso   1.00
H333   H     0.25331   0.54080   0.04671   0.00000  Uiso   1.00
H334   H     0.42430   0.57618   0.23712   0.00000  Uiso   1.00
H335   H     0.26719   0.45641   0.41365   0.00000  Uiso   1.00
H336   H     0.43014   0.43183   0.48556   0.00000  Uiso   1.00
H337   H     0.33664   0.43228   0.37429   0.00000  Uiso   1.00
H338   H     0.32228   0.59008   0.09949   0.00000  Uiso   1.00
H339   H     0.41598   0.58086   0.49250   0.00000  Uiso   1.00
H340   H     0.25180   0.54470   0.28736   0.00000  Uiso   1.00
H341   H     0.35026   0.55799   0.00255   0.00000  Uiso   1.00
H342   H     0.43024   0.43719   0.72876   0.00000  Uiso   1.00
H343   H     0.36059   0.54460   0.74978   0.00000  Uiso   1.00
H344   H     0.33136   0.57647   0.84500   0.00000  Uiso   1.00
H345   H     0.40772   0.59362   0.99965   0.00000  Uiso   1.00
H346   H     0.33424   0.41772   0.86609   0.00000  Uiso   1.00
H347   H     0.43363   0.43383   0.97316   0.00000  Uiso   1.00
H348   H     0.33716   0.41990   0.63157   0.00000  Uiso   1.00
H349   H     0.42269   0.57808   0.73833   0.00000  Uiso   1.00
H350   H     0.25863   0.54271   0.54153   0.00000  Uiso   1.00
H351   H     0.25954   0.45343   0.91745   0.00000  Uiso   1.00
H352   H     0.25528   0.45638   0.66652   0.00000  Uiso   1.00
H353   H     0.32323   0.58954   0.60254   0.00000  Uiso   1.00
H354   H     0.35309   0.55441   0.50174   0.00000  Uiso   1.00
H355   H     0.25292   0.54361   0.79699   0.00000  Uiso   1.00
H356   H     0.42668   0.76384   0.22343   0.00000  Uiso   1.00
H357   H     0.34028   0.76081   0.11863   0.00000  Uiso   1.00
H358   H     0.40327   0.73355   0.12549   0.00000  Uiso   1.00
H359   H     0.42765   0.76970   0.47076   0.00000  Uiso   1.00
H360   H     0.33141   0.75740   0.36304   0.00000  Uiso   1.00
H361   H     0.39238   0.72015   0.36669   0.00000  Uiso   1.00
H362   H     0.25875   0.79034   0.16029   0.00000  Uiso   1.00
H363   H     0.26437   0.78795   0.40979   0.00000  Uiso   1.00
H364   H     0.49629   0.62114   0.29099   0.00000  Uiso   1.00
H365   H     0.42602   0.76216   0.96947   0.00000  Uiso   1.00
H366   H     0.26085   0.78840   0.90905   0.00000  Uiso   1.00
H367   H     0.43633   0.77067   0.72619   0.00000  Uiso   1.00
H368   H     0.33672   0.76040   0.61489   0.00000  Uiso   1.00
H369   H     0.39627   0.72600   0.62001   0.00000  Uiso   1.00
H370   H     0.33874   0.75969   0.86362   0.00000  Uiso   1.00
H371   H     0.39868   0.72733   0.87006   0.00000  Uiso   1.00
H372   H     0.49734   0.62361   0.78749   0.00000  Uiso   1.00
H373   H     0.25897   0.79163   0.65901   0.00000  Uiso   1.00
H374   H     0.41679   0.91159   0.24488   0.00000  Uiso   1.00
H375   H     0.34840   0.89114   0.25420   0.00000  Uiso   1.00
H376   H     0.32780   0.92435   0.09674   0.00000  Uiso   1.00
H377   H     0.49981   0.95545   0.30140   0.00000  Uiso   1.00
H378   H     0.32345   0.92649   0.34645   0.00000  Uiso   1.00
H379   H     0.40892   0.91725   0.49897   0.00000  Uiso   1.00
H380   H     0.25006   0.88331   0.03634   0.00000  Uiso   1.00
H381   H     0.34153   0.88734   0.49641   0.00000  Uiso   1.00
H382   H     0.41628   0.91075   0.74389   0.00000  Uiso   1.00
H383   H     0.35877   0.87352   0.73683   0.00000  Uiso   1.00
H384   H     0.31969   0.93110   0.60673   0.00000  Uiso   1.00
H385   H     0.32830   0.92352   0.84139   0.00000  Uiso   1.00
H386   H     0.35770   0.88688   0.99966   0.00000  Uiso   1.00
H387   H     0.41920   0.91977   0.99377   0.00000  Uiso   1.00
H388   H     0.49528   0.95185   0.55440   0.00000  Uiso   1.00
H389   H     0.25512   0.87560   0.79272   0.00000  Uiso   1.00
H390   H     0.67386   0.07261   0.46790   0.00000  Uiso   1.00
H391   H     0.59512   0.06309   0.12927   0.00000  Uiso   1.00
H392   H     0.65562   0.09550   0.13660   0.00000  Uiso   1.00
H393   H     0.50930   0.04395   0.17447   0.00000  Uiso   1.00
H394   H     0.67762   0.06368   0.23505   0.00000  Uiso   1.00
H395   H     0.58345   0.08564   0.37047   0.00000  Uiso   1.00
H396   H     0.64238   0.12129   0.37132   0.00000  Uiso   1.00
H397   H     0.50653   0.04212   0.42800   0.00000  Uiso   1.00
H398   H     0.68152   0.07026   0.97822   0.00000  Uiso   1.00
H399   H     0.59691   0.06235   0.62823   0.00000  Uiso   1.00
H400   H     0.65903   0.09445   0.63044   0.00000  Uiso   1.00
H401   H     0.68113   0.06584   0.73341   0.00000  Uiso   1.00
H402   H     0.57670   0.09049   0.86107   0.00000  Uiso   1.00
H403   H     0.64100   0.12629   0.86505   0.00000  Uiso   1.00
H404   H     0.51953   0.04403   0.92523   0.00000  Uiso   1.00
H405   H     0.51096   0.37816   0.17718   0.00000  Uiso   1.00
H406   H     0.56941   0.23786   0.10416   0.00000  Uiso   1.00
H407   H     0.66182   0.24841   0.24973   0.00000  Uiso   1.00
H408   H     0.59799   0.27389   0.25635   0.00000  Uiso   1.00
H409   H     0.65376   0.23673   0.00453   0.00000  Uiso   1.00
H410   H     0.57252   0.24055   0.35705   0.00000  Uiso   1.00
H411   H     0.58992   0.26392   0.00439   0.00000  Uiso   1.00
H412   H     0.74817   0.21212   0.04484   0.00000  Uiso   1.00
H413   H     0.67997   0.39368   0.22523   0.00000  Uiso   1.00
H414   H     0.67906   0.39459   0.47998   0.00000  Uiso   1.00
H415   H     0.57032   0.24268   0.60158   0.00000  Uiso   1.00
H416   H     0.66338   0.24935   0.74652   0.00000  Uiso   1.00
H417   H     0.60644   0.28581   0.74553   0.00000  Uiso   1.00
H418   H     0.66271   0.24756   0.50186   0.00000  Uiso   1.00
H419   H     0.57903   0.24810   0.84488   0.00000  Uiso   1.00
H420   H     0.51566   0.37701   0.92343   0.00000  Uiso   1.00
H421   H     0.51084   0.37708   0.66774   0.00000  Uiso   1.00
H422   H     0.60839   0.28408   0.50276   0.00000  Uiso   1.00
H423   H     0.74555   0.21070   0.55088   0.00000  Uiso   1.00
H424   H     0.65594   0.43116   0.12305   0.00000  Uiso   1.00
H425   H     0.64497   0.43848   0.36940   0.00000  Uiso   1.00
H426   H     0.66997   0.59119   0.48996   0.00000  Uiso   1.00
H427   H     0.57474   0.57773   0.34663   0.00000  Uiso   1.00
H428   H     0.57480   0.57867   0.09406   0.00000  Uiso   1.00
H429   H     0.74828   0.54680   0.04480   0.00000  Uiso   1.00
H430   H     0.66960   0.58666   0.23594   0.00000  Uiso   1.00
H431   H     0.58734   0.40306   0.36801   0.00000  Uiso   1.00
H432   H     0.59254   0.40467   0.11800   0.00000  Uiso   1.00
H433   H     0.67425   0.40154   0.96325   0.00000  Uiso   1.00
H434   H     0.64770   0.44083   0.62457   0.00000  Uiso   1.00
H435   H     0.66854   0.58425   0.99073   0.00000  Uiso   1.00
H436   H     0.66133   0.43098   0.87262   0.00000  Uiso   1.00
H437   H     0.58633   0.41020   0.62009   0.00000  Uiso   1.00
H438   H     0.66174   0.57605   0.74542   0.00000  Uiso   1.00
H439   H     0.57718   0.57634   0.84736   0.00000  Uiso   1.00
H440   H     0.57648   0.58264   0.59148   0.00000  Uiso   1.00
H441   H     0.59468   0.40263   0.87118   0.00000  Uiso   1.00
H442   H     0.67621   0.40214   0.71763   0.00000  Uiso   1.00
H443   H     0.51277   0.71267   0.16916   0.00000  Uiso   1.00
H444   H     0.58385   0.74629   0.11492   0.00000  Uiso   1.00
H445   H     0.60842   0.61946   0.23866   0.00000  Uiso   1.00
H446   H     0.68095   0.73323   0.22253   0.00000  Uiso   1.00
H447   H     0.59035   0.73274   0.37116   0.00000  Uiso   1.00
H448   H     0.50728   0.71106   0.41654   0.00000  Uiso   1.00
H449   H     0.67499   0.74192   0.47455   0.00000  Uiso   1.00
H450   H     0.64825   0.77341   0.37428   0.00000  Uiso   1.00
H451   H     0.65079   0.77302   0.12456   0.00000  Uiso   1.00
H452   H     0.60350   0.61976   0.49692   0.00000  Uiso   1.00
H453   H     0.50366   0.62109   0.04004   0.00000  Uiso   1.00
H454   H     0.60603   0.61661   0.74601   0.00000  Uiso   1.00
H455   H     0.50080   0.62290   0.54169   0.00000  Uiso   1.00
H456   H     0.57781   0.74966   0.61629   0.00000  Uiso   1.00
H457   H     0.68195   0.74007   0.71806   0.00000  Uiso   1.00
H458   H     0.59201   0.73920   0.86878   0.00000  Uiso   1.00
H459   H     0.65238   0.76538   0.87593   0.00000  Uiso   1.00
H460   H     0.63812   0.78851   0.61838   0.00000  Uiso   1.00
H461   H     0.68052   0.73610   0.97842   0.00000  Uiso   1.00
H462   H     0.50742   0.71297   0.91151   0.00000  Uiso   1.00
H463   H     0.60959   0.62382   0.98919   0.00000  Uiso   1.00
H464   H     0.50706   0.71657   0.66507   0.00000  Uiso   1.00
H465   H     0.61085   0.96046   0.10977   0.00000  Uiso   1.00
H466   H     0.63745   0.87531   0.24830   0.00000  Uiso   1.00
H467   H     0.57714   0.90902   0.24837   0.00000  Uiso   1.00
H468   H     0.60913   0.96109   0.35117   0.00000  Uiso   1.00
H469   H     0.74749   0.87823   0.04601   0.00000  Uiso   1.00
H470   H     0.50638   0.95616   0.04761   0.00000  Uiso   1.00
H471   H     0.74974   0.88000   0.29931   0.00000  Uiso   1.00
H472   H     0.58017   0.90981   0.49281   0.00000  Uiso   1.00
H473   H     0.61275   0.96469   0.60859   0.00000  Uiso   1.00
H474   H     0.63526   0.87539   0.74664   0.00000  Uiso   1.00
H475   H     0.57570   0.91056   0.74751   0.00000  Uiso   1.00
H476   H     0.60845   0.96415   0.85791   0.00000  Uiso   1.00
H477   H     0.57556   0.90940   0.99494   0.00000  Uiso   1.00
H478   H     0.74013   0.88353   0.55251   0.00000  Uiso   1.00
H479   H     0.50882   0.96055   0.80001   0.00000  Uiso   1.00
H480   H     0.63912   0.87382   0.99379   0.00000  Uiso   1.00
H481   H     0.64699   0.88986   0.50107   0.00000  Uiso   1.00
H482   H     0.92362   0.08916   0.22552   0.00000  Uiso   1.00
H483   H     0.83336   0.09140   0.12079   0.00000  Uiso   1.00
H484   H     0.90122   0.06275   0.12406   0.00000  Uiso   1.00
H485   H     0.75822   0.12465   0.17652   0.00000  Uiso   1.00
H486   H     0.83582   0.08745   0.37802   0.00000  Uiso   1.00
H487   H     0.90014   0.05540   0.38035   0.00000  Uiso   1.00
H488   H     0.92910   0.09508   0.47581   0.00000  Uiso   1.00
H489   H     0.76182   0.12221   0.42317   0.00000  Uiso   1.00
H490   H     0.93031   0.09857   0.73201   0.00000  Uiso   1.00
H491   H     0.83612   0.08081   0.61847   0.00000  Uiso   1.00
H492   H     0.89757   0.05167   0.62447   0.00000  Uiso   1.00
H493   H     0.92423   0.09611   0.97270   0.00000  Uiso   1.00
H494   H     0.84121   0.08783   0.88014   0.00000  Uiso   1.00
H495   H     0.90218   0.05593   0.87591   0.00000  Uiso   1.00
H496   H     0.75446   0.12067   0.92242   0.00000  Uiso   1.00
H497   H     0.75808   0.11747   0.67954   0.00000  Uiso   1.00
H498   H     0.92495   0.23428   0.22906   0.00000  Uiso   1.00
H499   H     0.81583   0.26876   0.11628   0.00000  Uiso   1.00
H500   H     0.89143   0.38081   0.36590   0.00000  Uiso   1.00
H501   H     0.81943   0.25858   0.35611   0.00000  Uiso   1.00
H502   H     0.75749   0.20980   0.30146   0.00000  Uiso   1.00
H503   H     0.99940   0.28224   0.30016   0.00000  Uiso   1.00
H504   H     0.85851   0.21339   0.24963   0.00000  Uiso   1.00
H505   H     0.85234   0.21575   0.00418   0.00000  Uiso   1.00
H506   H     0.89596   0.39599   0.12786   0.00000  Uiso   1.00
H507   H     0.91605   0.25010   0.00136   0.00000  Uiso   1.00
H508   H     0.91390   0.25025   0.74560   0.00000  Uiso   1.00
H509   H     0.75512   0.20988   0.79897   0.00000  Uiso   1.00
H510   H     0.82292   0.25019   0.60283   0.00000  Uiso   1.00
H511   H     0.82328   0.25616   0.85530   0.00000  Uiso   1.00
H512   H     0.89286   0.38448   0.61949   0.00000  Uiso   1.00
H513   H     0.99701   0.28422   0.54392   0.00000  Uiso   1.00
H514   H     0.85177   0.21936   0.75292   0.00000  Uiso   1.00
H515   H     0.91193   0.25150   0.50030   0.00000  Uiso   1.00
H516   H     0.85334   0.21703   0.50314   0.00000  Uiso   1.00
H517   H     0.92840   0.42922   0.22906   0.00000  Uiso   1.00
H518   H     0.85270   0.55048   0.24374   0.00000  Uiso   1.00
H519   H     0.92590   0.42395   0.46992   0.00000  Uiso   1.00
H520   H     0.83634   0.42700   0.11897   0.00000  Uiso   1.00
H521   H     0.75453   0.54155   0.29387   0.00000  Uiso   1.00
H522   H     0.82499   0.58447   0.35144   0.00000  Uiso   1.00
H523   H     0.77553   0.46181   0.16778   0.00000  Uiso   1.00
H524   H     0.91363   0.58084   0.23929   0.00000  Uiso   1.00
H525   H     0.83003   0.41007   0.36450   0.00000  Uiso   1.00
H526   H     0.75221   0.45138   0.42056   0.00000  Uiso   1.00
H527   H     0.85463   0.54643   0.49930   0.00000  Uiso   1.00
H528   H     0.91753   0.57965   0.49717   0.00000  Uiso   1.00
H529   H     0.92666   0.43018   0.72080   0.00000  Uiso   1.00
H530   H     0.85298   0.54800   0.75057   0.00000  Uiso   1.00
H531   H     0.93109   0.43200   0.97822   0.00000  Uiso   1.00
H532   H     0.90657   0.40416   0.87876   0.00000  Uiso   1.00
H533   H     0.82279   0.58863   0.84852   0.00000  Uiso   1.00
H534   H     0.82793   0.41225   0.61078   0.00000  Uiso   1.00
H535   H     0.84195   0.42753   0.86989   0.00000  Uiso   1.00
H536   H     0.91197   0.58072   0.75229   0.00000  Uiso   1.00
H537   H     0.76272   0.45589   0.91790   0.00000  Uiso   1.00
H538   H     0.91079   0.58900   0.99853   0.00000  Uiso   1.00
H539   H     0.85030   0.55377   0.99779   0.00000  Uiso   1.00
H540   H     0.82827   0.58317   0.59309   0.00000  Uiso   1.00
H541   H     0.75063   0.54413   0.54391   0.00000  Uiso   1.00
H542   H     0.76277   0.45300   0.66843   0.00000  Uiso   1.00
H543   H     0.75460   0.54444   0.79099   0.00000  Uiso   1.00
H544   H     0.92566   0.76031   0.47664   0.00000  Uiso   1.00
H545   H     0.93249   0.76512   0.22980   0.00000  Uiso   1.00
H546   H     0.83667   0.75310   0.12001   0.00000  Uiso   1.00
H547   H     0.89890   0.72088   0.11697   0.00000  Uiso   1.00
H548   H     0.76445   0.79049   0.17192   0.00000  Uiso   1.00
H549   H     0.84300   0.75679   0.37431   0.00000  Uiso   1.00
H550   H     0.90441   0.72881   0.37879   0.00000  Uiso   1.00
H551   H     0.75518   0.79069   0.43230   0.00000  Uiso   1.00
H552   H     0.81532   0.60135   0.10336   0.00000  Uiso   1.00
H553   H     0.99592   0.62151   0.04948   0.00000  Uiso   1.00
H554   H     0.93249   0.76905   0.97526   0.00000  Uiso   1.00
H555   H     0.92629   0.76042   0.72263   0.00000  Uiso   1.00
H556   H     0.83378   0.75272   0.62229   0.00000  Uiso   1.00
H557   H     0.89102   0.71985   0.62206   0.00000  Uiso   1.00
H558   H     0.75985   0.78848   0.91938   0.00000  Uiso   1.00
H559   H     0.84077   0.76302   0.87534   0.00000  Uiso   1.00
H560   H     0.90305   0.73372   0.88216   0.00000  Uiso   1.00
H561   H     0.76161   0.78753   0.67202   0.00000  Uiso   1.00
H562   H     0.92090   0.91153   0.24419   0.00000  Uiso   1.00
H563   H     0.85984   0.88070   0.25162   0.00000  Uiso   1.00
H564   H     0.82569   0.92272   0.10242   0.00000  Uiso   1.00
H565   H     0.82813   0.91685   0.34805   0.00000  Uiso   1.00
H566   H     0.99516   0.95399   0.04361   0.00000  Uiso   1.00
H567   H     0.85322   0.89116   0.00816   0.00000  Uiso   1.00
H568   H     0.91836   0.91429   0.74429   0.00000  Uiso   1.00
H569   H     0.85637   0.87879   0.74682   0.00000  Uiso   1.00
H570   H     0.82523   0.91815   0.60087   0.00000  Uiso   1.00
H571   H     0.82953   0.91245   0.84834   0.00000  Uiso   1.00
H572   H     0.99963   0.95389   0.54442   0.00000  Uiso   1.00
H573   H     0.75591   0.87765   0.79559   0.00000  Uiso   1.00
H574   H     0.85253   0.88460   0.50135   0.00000  Uiso   1.00
H575   H     0.91561   0.91840   0.50061   0.00000  Uiso   1.00
H576   H     0.91659   0.91702   0.99651   0.00000  Uiso   1.00
C577   C     0.11036   0.07269   0.08849   0.00000  Uiso   1.00
C578   C     0.14855   0.08820   0.09131   0.00000  Uiso   1.00
C579   C     0.12077   0.05229   0.00253   0.00000  Uiso   1.00
C580   C     0.05709   0.03485   0.04694   0.00000  Uiso   1.00
C581   C     0.09609   0.05376   0.04642   0.00000  Uiso   1.00
C582   C     0.20222   0.11590   0.04268   0.00000  Uiso   1.00
C583   C     0.17037   0.08888   0.04485   0.00000  Uiso   1.00
C584   C     0.11644   0.06243   0.34276   0.00000  Uiso   1.00
C585   C     0.15604   0.07551   0.34547   0.00000  Uiso   1.00
C586   C     0.12490   0.05041   0.25311   0.00000  Uiso   1.00
C587   C     0.16096   0.06920   0.25438   0.00000  Uiso   1.00
C588   C     0.06221   0.03293   0.29657   0.00000  Uiso   1.00
C589   C     0.10110   0.04993   0.29695   0.00000  Uiso   1.00
C590   C     0.20958   0.10834   0.29910   0.00000  Uiso   1.00
C591   C     0.17712   0.08184   0.30049   0.00000  Uiso   1.00
C592   C     0.15505   0.07352   0.00026   0.00000  Uiso   1.00
C593   C     0.10990   0.06602   0.59035   0.00000  Uiso   1.00
C594   C     0.14370   0.08725   0.59106   0.00000  Uiso   1.00
C595   C     0.16117   0.06403   0.50684   0.00000  Uiso   1.00
C596   C     0.06250   0.02587   0.54815   0.00000  Uiso   1.00
C597   C     0.10161   0.04337   0.54879   0.00000  Uiso   1.00
C598   C     0.20181   0.11376   0.54834   0.00000  Uiso   1.00
C599   C     0.17019   0.08669   0.54955   0.00000  Uiso   1.00
C600   C     0.10298   0.07644   0.84136   0.00000  Uiso   1.00
C601   C     0.13807   0.09650   0.84229   0.00000  Uiso   1.00
C602   C     0.12216   0.05283   0.75673   0.00000  Uiso   1.00
C603   C     0.15752   0.07310   0.75840   0.00000  Uiso   1.00
C604   C     0.06032   0.03049   0.79699   0.00000  Uiso   1.00
C605   C     0.09383   0.05520   0.79758   0.00000  Uiso   1.00
C606   C     0.19942   0.11621   0.80026   0.00000  Uiso   1.00
C607   C     0.16531   0.09475   0.80168   0.00000  Uiso   1.00
C608   C     0.12852   0.04224   0.50773   0.00000  Uiso   1.00
C609   C     0.19626   0.20952   0.42013   0.00000  Uiso   1.00
C610   C     0.09611   0.38366   0.04635   0.00000  Uiso   1.00
C611   C     0.12033   0.38483   0.25616   0.00000  Uiso   1.00
C612   C     0.09256   0.38733   0.29514   0.00000  Uiso   1.00
C613   C     0.11554   0.27099   0.46167   0.00000  Uiso   1.00
C614   C     0.15045   0.25180   0.45900   0.00000  Uiso   1.00
C615   C     0.12955   0.21998   0.13637   0.00000  Uiso   1.00
C616   C     0.09428   0.23921   0.13908   0.00000  Uiso   1.00
C617   C     0.15841   0.22642   0.17245   0.00000  Uiso   1.00
C618   C     0.04891   0.28425   0.17870   0.00000  Uiso   1.00
C619   C     0.08577   0.26253   0.18057   0.00000  Uiso   1.00
C620   C     0.15043   0.24709   0.21527   0.00000  Uiso   1.00
C621   C     0.11401   0.26442   0.22020   0.00000  Uiso   1.00
C622   C     0.05705   0.36689   0.04449   0.00000  Uiso   1.00
C623   C     0.11032   0.39909   0.09156   0.00000  Uiso   1.00
C624   C     0.12926   0.22212   0.38133   0.00000  Uiso   1.00
C625   C     0.09419   0.24044   0.38354   0.00000  Uiso   1.00
C626   C     0.05697   0.36554   0.29577   0.00000  Uiso   1.00
C627   C     0.16027   0.23059   0.41776   0.00000  Uiso   1.00
C628   C     0.05043   0.28791   0.42381   0.00000  Uiso   1.00
C629   C     0.08667   0.26584   0.42171   0.00000  Uiso   1.00
C630   C     0.19529   0.20497   0.17045   0.00000  Uiso   1.00
C631   C     0.12117   0.38297   0.00229   0.00000  Uiso   1.00
C632   C     0.11066   0.26729   0.97121   0.00000  Uiso   1.00
C633   C     0.14623   0.24796   0.96991   0.00000  Uiso   1.00
C634   C     0.09336   0.38812   0.54421   0.00000  Uiso   1.00
C635   C     0.08787   0.27080   0.92612   0.00000  Uiso   1.00
C636   C     0.12014   0.38641   0.50198   0.00000  Uiso   1.00
C637   C     0.12520   0.22394   0.63046   0.00000  Uiso   1.00
C638   C     0.09266   0.24696   0.62929   0.00000  Uiso   1.00
C639   C     0.11927   0.39010   0.75503   0.00000  Uiso   1.00
C640   C     0.15139   0.22534   0.67355   0.00000  Uiso   1.00
C641   C     0.04881   0.29079   0.67100   0.00000  Uiso   1.00
C642   C     0.08359   0.26773   0.67208   0.00000  Uiso   1.00
C643   C     0.14115   0.24689   0.71635   0.00000  Uiso   1.00
C644   C     0.10771   0.26792   0.71357   0.00000  Uiso   1.00
C645   C     0.05666   0.36776   0.54565   0.00000  Uiso   1.00
C646   C     0.05763   0.37007   0.79753   0.00000  Uiso   1.00
C647   C     0.13563   0.23191   0.88044   0.00000  Uiso   1.00
C648   C     0.10091   0.25357   0.88161   0.00000  Uiso   1.00
C649   C     0.09354   0.39068   0.79640   0.00000  Uiso   1.00
C650   C     0.16044   0.23236   0.92343   0.00000  Uiso   1.00
C651   C     0.05058   0.29158   0.92317   0.00000  Uiso   1.00
C652   C     0.18959   0.20588   0.67216   0.00000  Uiso   1.00
C653   C     0.19736   0.21148   0.92373   0.00000  Uiso   1.00
C654   C     0.16256   0.43009   0.29572   0.00000  Uiso   1.00
C655   C     0.09971   0.41255   0.33470   0.00000  Uiso   1.00
C656   C     0.12751   0.55608   0.13442   0.00000  Uiso   1.00
C657   C     0.09346   0.57652   0.13607   0.00000  Uiso   1.00
C658   C     0.14824   0.41514   0.09488   0.00000  Uiso   1.00
C659   C     0.19427   0.54071   0.16966   0.00000  Uiso   1.00
C660   C     0.15650   0.56085   0.17301   0.00000  Uiso   1.00
C661   C     0.14592   0.58267   0.21373   0.00000  Uiso   1.00
C662   C     0.20780   0.44169   0.04950   0.00000  Uiso   1.00
C663   C     0.17094   0.41922   0.04974   0.00000  Uiso   1.00
C664   C     0.12958   0.55736   0.38371   0.00000  Uiso   1.00
C665   C     0.15676   0.40222   0.00569   0.00000  Uiso   1.00
C666   C     0.09670   0.58040   0.38629   0.00000  Uiso   1.00
C667   C     0.13510   0.43327   0.33463   0.00000  Uiso   1.00
C668   C     0.19322   0.53777   0.42293   0.00000  Uiso   1.00
C669   C     0.15588   0.55703   0.42546   0.00000  Uiso   1.00
C670   C     0.14663   0.57740   0.46898   0.00000  Uiso   1.00
C671   C     0.19666   0.45338   0.29333   0.00000  Uiso   1.00
C672   C     0.11193   0.59717   0.47217   0.00000  Uiso   1.00
C673   C     0.15563   0.40506   0.25386   0.00000  Uiso   1.00
C674   C     0.08678   0.59982   0.42912   0.00000  Uiso   1.00
C675   C     0.10350   0.41150   0.83995   0.00000  Uiso   1.00
C676   C     0.20084   0.45049   0.79700   0.00000  Uiso   1.00
C677   C     0.15458   0.40826   0.75689   0.00000  Uiso   1.00
C678   C     0.13039   0.56026   0.63289   0.00000  Uiso   1.00
C679   C     0.14672   0.58128   0.96148   0.00000  Uiso   1.00
C680   C     0.09415   0.57720   0.63689   0.00000  Uiso   1.00
C681   C     0.14048   0.42664   0.58763   0.00000  Uiso   1.00
C682   C     0.19659   0.54460   0.67002   0.00000  Uiso   1.00
C683   C     0.15806   0.56473   0.67240   0.00000  Uiso   1.00
C684   C     0.16442   0.42861   0.79820   0.00000  Uiso   1.00
C685   C     0.14909   0.58630   0.71379   0.00000  Uiso   1.00
C686   C     0.10340   0.41000   0.58495   0.00000  Uiso   1.00
C687   C     0.20456   0.44830   0.54668   0.00000  Uiso   1.00
C688   C     0.16781   0.42424   0.54793   0.00000  Uiso   1.00
C689   C     0.12606   0.55828   0.88028   0.00000  Uiso   1.00
C690   C     0.09184   0.57935   0.88287   0.00000  Uiso   1.00
C691   C     0.13958   0.42931   0.84100   0.00000  Uiso   1.00
C692   C     0.18944   0.53883   0.91983   0.00000  Uiso   1.00
C693   C     0.15454   0.55920   0.91986   0.00000  Uiso   1.00
C694   C     0.15641   0.40431   0.50528   0.00000  Uiso   1.00
C695   C     0.08452   0.59941   0.67891   0.00000  Uiso   1.00
C696   C     0.11262   0.60441   0.21503   0.00000  Uiso   1.00
C697   C     0.15497   0.74140   0.01032   0.00000  Uiso   1.00
C698   C     0.04922   0.62259   0.17390   0.00000  Uiso   1.00
C699   C     0.09943   0.75114   0.08709   0.00000  Uiso   1.00
C700   C     0.13408   0.77150   0.08736   0.00000  Uiso   1.00
C701   C     0.05337   0.70615   0.05094   0.00000  Uiso   1.00
C702   C     0.09071   0.72761   0.04770   0.00000  Uiso   1.00
C703   C     0.19738   0.78900   0.04653   0.00000  Uiso   1.00
C704   C     0.16328   0.76519   0.04950   0.00000  Uiso   1.00
C705   C     0.05279   0.62486   0.42738   0.00000  Uiso   1.00
C706   C     0.11084   0.73811   0.34187   0.00000  Uiso   1.00
C707   C     0.14428   0.76113   0.34091   0.00000  Uiso   1.00
C708   C     0.12169   0.71951   0.25535   0.00000  Uiso   1.00
C709   C     0.15743   0.73815   0.25589   0.00000  Uiso   1.00
C710   C     0.05804   0.69875   0.29926   0.00000  Uiso   1.00
C711   C     0.09746   0.71901   0.29840   0.00000  Uiso   1.00
C712   C     0.19925   0.78741   0.29172   0.00000  Uiso   1.00
C713   C     0.16702   0.76280   0.29557   0.00000  Uiso   1.00
C714   C     0.08640   0.60172   0.17388   0.00000  Uiso   1.00
C715   C     0.11886   0.72348   0.00841   0.00000  Uiso   1.00
C716   C     0.11298   0.60306   0.71824   0.00000  Uiso   1.00
C717   C     0.08488   0.60014   0.92476   0.00000  Uiso   1.00
C718   C     0.04838   0.62260   0.67702   0.00000  Uiso   1.00
C719   C     0.10112   0.74725   0.58894   0.00000  Uiso   1.00
C720   C     0.13857   0.76486   0.59316   0.00000  Uiso   1.00
C721   C     0.05639   0.70086   0.55052   0.00000  Uiso   1.00
C722   C     0.09392   0.72176   0.54978   0.00000  Uiso   1.00
C723   C     0.20328   0.78420   0.54811   0.00000  Uiso   1.00
C724   C     0.16779   0.75870   0.55547   0.00000  Uiso   1.00
C725   C     0.04897   0.62403   0.92538   0.00000  Uiso   1.00
C726   C     0.10566   0.74485   0.84240   0.00000  Uiso   1.00
C727   C     0.14333   0.76375   0.84227   0.00000  Uiso   1.00
C728   C     0.12308   0.72149   0.75809   0.00000  Uiso   1.00
C729   C     0.15959   0.73908   0.76074   0.00000  Uiso   1.00
C730   C     0.05777   0.70524   0.79595   0.00000  Uiso   1.00
C731   C     0.09550   0.72534   0.79701   0.00000  Uiso   1.00
C732   C     0.20365   0.78428   0.79879   0.00000  Uiso   1.00
C733   C     0.16846   0.76098   0.80161   0.00000  Uiso   1.00
C734   C     0.12519   0.71506   0.51648   0.00000  Uiso   1.00
C735   C     0.16136   0.73240   0.51858   0.00000  Uiso   1.00
C736   C     0.11184   0.60110   0.96689   0.00000  Uiso   1.00
C737   C     0.13609   0.90012   0.12272   0.00000  Uiso   1.00
C738   C     0.09950   0.91790   0.12223   0.00000  Uiso   1.00
C739   C     0.19761   0.88132   0.16508   0.00000  Uiso   1.00
C740   C     0.16055   0.90253   0.16465   0.00000  Uiso   1.00
C741   C     0.05028   0.95872   0.16679   0.00000  Uiso   1.00
C742   C     0.08652   0.93691   0.16592   0.00000  Uiso   1.00
C743   C     0.14891   0.92167   0.20632   0.00000  Uiso   1.00
C744   C     0.11140   0.93558   0.20893   0.00000  Uiso   1.00
C745   C     0.12271   0.88617   0.37465   0.00000  Uiso   1.00
C746   C     0.08758   0.90545   0.37735   0.00000  Uiso   1.00
C747   C     0.18998   0.87316   0.41110   0.00000  Uiso   1.00
C748   C     0.15227   0.89299   0.41158   0.00000  Uiso   1.00
C749   C     0.04640   0.95237   0.42169   0.00000  Uiso   1.00
C750   C     0.07789   0.92574   0.42210   0.00000  Uiso   1.00
C751   C     0.14116   0.91111   0.45690   0.00000  Uiso   1.00
C752   C     0.10415   0.92715   0.46229   0.00000  Uiso   1.00
C753   C     0.12774   0.88454   0.63317   0.00000  Uiso   1.00
C754   C     0.09173   0.90421   0.63557   0.00000  Uiso   1.00
C755   C     0.19354   0.87407   0.67256   0.00000  Uiso   1.00
C756   C     0.15496   0.89096   0.67175   0.00000  Uiso   1.00
C757   C     0.04864   0.95227   0.67459   0.00000  Uiso   1.00
C758   C     0.08306   0.92729   0.67723   0.00000  Uiso   1.00
C759   C     0.14498   0.91453   0.71336   0.00000  Uiso   1.00
C760   C     0.10797   0.93272   0.71857   0.00000  Uiso   1.00
C761   C     0.13441   0.89575   0.87996   0.00000  Uiso   1.00
C762   C     0.09784   0.91311   0.88244   0.00000  Uiso   1.00
C763   C     0.19694   0.87572   0.92303   0.00000  Uiso   1.00
C764   C     0.15988   0.89667   0.92314   0.00000  Uiso   1.00
C765   C     0.04894   0.95310   0.92641   0.00000  Uiso   1.00
C766   C     0.08625   0.93145   0.92598   0.00000  Uiso   1.00
C767   C     0.14758   0.91436   0.96771   0.00000  Uiso   1.00
C768   C     0.11053   0.93076   0.96840   0.00000  Uiso   1.00
C769   C     0.40991   0.09412   0.00743   0.00000  Uiso   1.00
C770   C     0.37513   0.11574   0.00622   0.00000  Uiso   1.00
C771   C     0.31365   0.13714   0.04719   0.00000  Uiso   1.00
C772   C     0.35081   0.11774   0.04742   0.00000  Uiso   1.00
C773   C     0.45345   0.05017   0.05042   0.00000  Uiso   1.00
C774   C     0.41977   0.07547   0.05031   0.00000  Uiso   1.00
C775   C     0.36238   0.09902   0.09165   0.00000  Uiso   1.00
C776   C     0.39626   0.07768   0.09274   0.00000  Uiso   1.00
C777   C     0.37568   0.11334   0.25632   0.00000  Uiso   1.00
C778   C     0.41093   0.09482   0.26108   0.00000  Uiso   1.00
C779   C     0.30961   0.12739   0.29458   0.00000  Uiso   1.00
C780   C     0.34721   0.10865   0.29562   0.00000  Uiso   1.00
C781   C     0.45303   0.04943   0.30171   0.00000  Uiso   1.00
C782   C     0.42026   0.07499   0.30492   0.00000  Uiso   1.00
C783   C     0.35655   0.08635   0.33894   0.00000  Uiso   1.00
C784   C     0.39377   0.07143   0.34436   0.00000  Uiso   1.00
C785   C     0.37446   0.11714   0.49855   0.00000  Uiso   1.00
C786   C     0.31200   0.13775   0.54441   0.00000  Uiso   1.00
C787   C     0.34959   0.11878   0.54184   0.00000  Uiso   1.00
C788   C     0.45594   0.05245   0.54499   0.00000  Uiso   1.00
C789   C     0.42398   0.08096   0.54598   0.00000  Uiso   1.00
C790   C     0.36260   0.10054   0.58614   0.00000  Uiso   1.00
C791   C     0.40032   0.08424   0.59001   0.00000  Uiso   1.00
C792   C     0.37148   0.11697   0.75645   0.00000  Uiso   1.00
C793   C     0.40894   0.10120   0.76107   0.00000  Uiso   1.00
C794   C     0.30619   0.13129   0.79806   0.00000  Uiso   1.00
C795   C     0.34454   0.11261   0.79589   0.00000  Uiso   1.00
C796   C     0.45228   0.05349   0.80082   0.00000  Uiso   1.00
C797   C     0.41826   0.07875   0.80193   0.00000  Uiso   1.00
C798   C     0.35579   0.09174   0.83789   0.00000  Uiso   1.00
C799   C     0.39136   0.07600   0.84185   0.00000  Uiso   1.00
C800   C     0.40991   0.09617   0.50080   0.00000  Uiso   1.00
C801   C     0.45090   0.38251   0.29856   0.00000  Uiso   1.00
C802   C     0.39312   0.25225   0.20837   0.00000  Uiso   1.00
C803   C     0.35623   0.23593   0.21215   0.00000  Uiso   1.00
C804   C     0.37622   0.27832   0.12655   0.00000  Uiso   1.00
C805   C     0.34241   0.25639   0.12609   0.00000  Uiso   1.00
C806   C     0.43880   0.29795   0.17127   0.00000  Uiso   1.00
C807   C     0.40242   0.27564   0.16837   0.00000  Uiso   1.00
C808   C     0.33267   0.23555   0.17012   0.00000  Uiso   1.00
C809   C     0.45202   0.38070   0.04481   0.00000  Uiso   1.00
C810   C     0.40022   0.24306   0.46309   0.00000  Uiso   1.00
C811   C     0.36382   0.22306   0.46841   0.00000  Uiso   1.00
C812   C     0.38005   0.26548   0.38180   0.00000  Uiso   1.00
C813   C     0.34576   0.24615   0.38331   0.00000  Uiso   1.00
C814   C     0.44213   0.28736   0.42161   0.00000  Uiso   1.00
C815   C     0.40772   0.26404   0.42168   0.00000  Uiso   1.00
C816   C     0.33750   0.22521   0.42576   0.00000  Uiso   1.00
C817   C     0.29979   0.20891   0.16986   0.00000  Uiso   1.00
C818   C     0.30152   0.20424   0.42482   0.00000  Uiso   1.00
C819   C     0.39121   0.25213   0.71577   0.00000  Uiso   1.00
C820   C     0.35619   0.23365   0.71837   0.00000  Uiso   1.00
C821   C     0.37946   0.26752   0.62924   0.00000  Uiso   1.00
C822   C     0.34313   0.25048   0.63093   0.00000  Uiso   1.00
C823   C     0.44311   0.29060   0.67302   0.00000  Uiso   1.00
C824   C     0.40482   0.26933   0.67153   0.00000  Uiso   1.00
C825   C     0.29527   0.21133   0.67620   0.00000  Uiso   1.00
C826   C     0.33105   0.23439   0.67666   0.00000  Uiso   1.00
C827   C     0.44986   0.38061   0.55494   0.00000  Uiso   1.00
C828   C     0.38996   0.26174   0.96271   0.00000  Uiso   1.00
C829   C     0.35455   0.24211   0.96314   0.00000  Uiso   1.00
C830   C     0.37782   0.27667   0.87355   0.00000  Uiso   1.00
C831   C     0.34435   0.25355   0.87336   0.00000  Uiso   1.00
C832   C     0.44052   0.29621   0.91785   0.00000  Uiso   1.00
C833   C     0.40206   0.27780   0.91797   0.00000  Uiso   1.00
C834   C     0.33281   0.23693   0.91907   0.00000  Uiso   1.00
C835   C     0.45245   0.38150   0.79752   0.00000  Uiso   1.00
C836   C     0.29953   0.21115   0.91839   0.00000  Uiso   1.00
C837   C     0.41990   0.40533   0.04279   0.00000  Uiso   1.00
C838   C     0.33607   0.56416   0.42127   0.00000  Uiso   1.00
C839   C     0.40177   0.57837   0.20710   0.00000  Uiso   1.00
C840   C     0.41697   0.40777   0.29839   0.00000  Uiso   1.00
C841   C     0.39373   0.41264   0.34260   0.00000  Uiso   1.00
C842   C     0.39189   0.40100   0.08036   0.00000  Uiso   1.00
C843   C     0.36588   0.55874   0.21015   0.00000  Uiso   1.00
C844   C     0.30946   0.46275   0.04257   0.00000  Uiso   1.00
C845   C     0.34966   0.44571   0.04069   0.00000  Uiso   1.00
C846   C     0.35607   0.43034   0.34237   0.00000  Uiso   1.00
C847   C     0.36003   0.42334   0.08209   0.00000  Uiso   1.00
C848   C     0.39730   0.58141   0.45973   0.00000  Uiso   1.00
C849   C     0.30376   0.53725   0.17173   0.00000  Uiso   1.00
C850   C     0.33848   0.56140   0.17030   0.00000  Uiso   1.00
C851   C     0.36770   0.44508   0.25363   0.00000  Uiso   1.00
C852   C     0.29888   0.54252   0.42143   0.00000  Uiso   1.00
C853   C     0.40397   0.42489   0.25539   0.00000  Uiso   1.00
C854   C     0.36005   0.56765   0.46299   0.00000  Uiso   1.00
C855   C     0.30638   0.46428   0.29831   0.00000  Uiso   1.00
C856   C     0.34299   0.44577   0.29745   0.00000  Uiso   1.00
C857   C     0.41157   0.42898   0.00250   0.00000  Uiso   1.00
C858   C     0.34354   0.58760   0.13056   0.00000  Uiso   1.00
C859   C     0.34906   0.57968   0.37553   0.00000  Uiso   1.00
C860   C     0.38489   0.59524   0.37162   0.00000  Uiso   1.00
C861   C     0.37757   0.44898   0.00016   0.00000  Uiso   1.00
C862   C     0.40832   0.59951   0.41595   0.00000  Uiso   1.00
C863   C     0.39843   0.58385   0.71176   0.00000  Uiso   1.00
C864   C     0.41664   0.40567   0.55772   0.00000  Uiso   1.00
C865   C     0.34356   0.58538   0.63456   0.00000  Uiso   1.00
C866   C     0.39092   0.40662   0.83960   0.00000  Uiso   1.00
C867   C     0.37500   0.44839   0.51571   0.00000  Uiso   1.00
C868   C     0.35525   0.42280   0.83710   0.00000  Uiso   1.00
C869   C     0.34976   0.58111   0.87950   0.00000  Uiso   1.00
C870   C     0.39272   0.59044   0.96464   0.00000  Uiso   1.00
C871   C     0.36407   0.56251   0.71492   0.00000  Uiso   1.00
C872   C     0.30921   0.46480   0.55354   0.00000  Uiso   1.00
C873   C     0.34666   0.44647   0.55497   0.00000  Uiso   1.00
C874   C     0.30160   0.54117   0.92309   0.00000  Uiso   1.00
C875   C     0.35715   0.42392   0.59810   0.00000  Uiso   1.00
C876   C     0.33563   0.56578   0.92444   0.00000  Uiso   1.00
C877   C     0.30045   0.54256   0.67682   0.00000  Uiso   1.00
C878   C     0.33457   0.56519   0.67706   0.00000  Uiso   1.00
C879   C     0.37404   0.44784   0.75369   0.00000  Uiso   1.00
C880   C     0.41107   0.43085   0.75902   0.00000  Uiso   1.00
C881   C     0.35822   0.56928   0.96753   0.00000  Uiso   1.00
C882   C     0.30673   0.46082   0.79339   0.00000  Uiso   1.00
C883   C     0.34511   0.44320   0.79340   0.00000  Uiso   1.00
C884   C     0.39246   0.40421   0.59805   0.00000  Uiso   1.00
C885   C     0.41716   0.40694   0.79864   0.00000  Uiso   1.00
C886   C     0.40976   0.42959   0.51724   0.00000  Uiso   1.00
C887   C     0.40737   0.60295   0.16726   0.00000  Uiso   1.00
C888   C     0.37901   0.60634   0.12807   0.00000  Uiso   1.00
C889   C     0.44429   0.62462   0.16722   0.00000  Uiso   1.00
C890   C     0.40908   0.76264   0.00315   0.00000  Uiso   1.00
C891   C     0.37455   0.78388   0.00217   0.00000  Uiso   1.00
C892   C     0.34900   0.78303   0.04308   0.00000  Uiso   1.00
C893   C     0.45280   0.71890   0.04641   0.00000  Uiso   1.00
C894   C     0.42128   0.74557   0.04769   0.00000  Uiso   1.00
C895   C     0.36027   0.76509   0.08720   0.00000  Uiso   1.00
C896   C     0.39633   0.74772   0.08953   0.00000  Uiso   1.00
C897   C     0.44305   0.62069   0.41746   0.00000  Uiso   1.00
C898   C     0.36988   0.78006   0.24873   0.00000  Uiso   1.00
C899   C     0.40674   0.76135   0.25330   0.00000  Uiso   1.00
C900   C     0.34217   0.77778   0.29042   0.00000  Uiso   1.00
C901   C     0.44858   0.71428   0.29662   0.00000  Uiso   1.00
C902   C     0.41359   0.73865   0.29645   0.00000  Uiso   1.00
C903   C     0.35168   0.75794   0.33397   0.00000  Uiso   1.00
C904   C     0.38665   0.73861   0.33637   0.00000  Uiso   1.00
C905   C     0.30711   0.79988   0.28935   0.00000  Uiso   1.00
C906   C     0.37092   0.78397   0.49646   0.00000  Uiso   1.00
C907   C     0.40483   0.60508   0.67049   0.00000  Uiso   1.00
C908   C     0.38279   0.60187   0.87445   0.00000  Uiso   1.00
C909   C     0.44236   0.62639   0.67012   0.00000  Uiso   1.00
C910   C     0.34494   0.78260   0.53939   0.00000  Uiso   1.00
C911   C     0.45045   0.71956   0.54381   0.00000  Uiso   1.00
C912   C     0.41674   0.74427   0.54496   0.00000  Uiso   1.00
C913   C     0.35473   0.76230   0.58275   0.00000  Uiso   1.00
C914   C     0.38986   0.74432   0.58716   0.00000  Uiso   1.00
C915   C     0.44370   0.62643   0.91743   0.00000  Uiso   1.00
C916   C     0.37833   0.78216   0.74947   0.00000  Uiso   1.00
C917   C     0.41414   0.76642   0.75688   0.00000  Uiso   1.00
C918   C     0.34966   0.78168   0.78934   0.00000  Uiso   1.00
C919   C     0.45405   0.71955   0.79604   0.00000  Uiso   1.00
C920   C     0.42160   0.74453   0.79708   0.00000  Uiso   1.00
C921   C     0.35916   0.76241   0.83424   0.00000  Uiso   1.00
C922   C     0.39545   0.74427   0.83906   0.00000  Uiso   1.00
C923   C     0.31109   0.79981   0.78815   0.00000  Uiso   1.00
C924   C     0.40634   0.60564   0.91888   0.00000  Uiso   1.00
C925   C     0.37791   0.60607   0.62953   0.00000  Uiso   1.00
C926   C     0.40794   0.76564   0.50174   0.00000  Uiso   1.00
C927   C     0.39522   0.91585   0.21438   0.00000  Uiso   1.00
C928   C     0.35576   0.90510   0.21880   0.00000  Uiso   1.00
C929   C     0.37958   0.94403   0.13181   0.00000  Uiso   1.00
C930   C     0.34379   0.92560   0.13086   0.00000  Uiso   1.00
C931   C     0.44670   0.95525   0.17720   0.00000  Uiso   1.00
C932   C     0.40683   0.93890   0.17353   0.00000  Uiso   1.00
C933   C     0.30134   0.87834   0.16905   0.00000  Uiso   1.00
C934   C     0.33260   0.90518   0.17275   0.00000  Uiso   1.00
C935   C     0.39170   0.91735   0.46240   0.00000  Uiso   1.00
C936   C     0.35393   0.90413   0.46362   0.00000  Uiso   1.00
C937   C     0.38002   0.94136   0.37701   0.00000  Uiso   1.00
C938   C     0.34279   0.92533   0.37815   0.00000  Uiso   1.00
C939   C     0.44291   0.95758   0.42190   0.00000  Uiso   1.00
C940   C     0.40507   0.93652   0.41855   0.00000  Uiso   1.00
C941   C     0.29804   0.88001   0.41699   0.00000  Uiso   1.00
C942   C     0.33242   0.90425   0.41946   0.00000  Uiso   1.00
C943   C     0.30998   0.80232   0.04210   0.00000  Uiso   1.00
C944   C     0.39470   0.91947   0.71389   0.00000  Uiso   1.00
C945   C     0.36156   0.89724   0.71217   0.00000  Uiso   1.00
C946   C     0.37418   0.94983   0.63420   0.00000  Uiso   1.00
C947   C     0.34106   0.92846   0.63513   0.00000  Uiso   1.00
C948   C     0.44180   0.96286   0.67505   0.00000  Uiso   1.00
C949   C     0.40253   0.94303   0.67248   0.00000  Uiso   1.00
C950   C     0.30033   0.87957   0.66952   0.00000  Uiso   1.00
C951   C     0.33468   0.90170   0.67285   0.00000  Uiso   1.00
C952   C     0.39823   0.92035   0.96187   0.00000  Uiso   1.00
C953   C     0.36377   0.90082   0.96344   0.00000  Uiso   1.00
C954   C     0.38062   0.94318   0.87873   0.00000  Uiso   1.00
C955   C     0.34757   0.92201   0.87871   0.00000  Uiso   1.00
C956   C     0.44599   0.96253   0.92217   0.00000  Uiso   1.00
C957   C     0.40867   0.94109   0.91925   0.00000  Uiso   1.00
C958   C     0.30458   0.87435   0.91703   0.00000  Uiso   1.00
C959   C     0.33861   0.89867   0.92039   0.00000  Uiso   1.00
C960   C     0.30900   0.80644   0.53995   0.00000  Uiso   1.00
C961   C     0.61471   0.06307   0.09838   0.00000  Uiso   1.00
C962   C     0.64815   0.08378   0.10113   0.00000  Uiso   1.00
C963   C     0.56325   0.02955   0.05004   0.00000  Uiso   1.00
C964   C     0.60259   0.04753   0.05101   0.00000  Uiso   1.00
C965   C     0.70128   0.11607   0.05399   0.00000  Uiso   1.00
C966   C     0.67075   0.08808   0.05545   0.00000  Uiso   1.00
C967   C     0.60108   0.08191   0.33910   0.00000  Uiso   1.00
C968   C     0.63740   0.10054   0.34091   0.00000  Uiso   1.00
C969   C     0.61831   0.05503   0.25834   0.00000  Uiso   1.00
C970   C     0.65443   0.07164   0.26180   0.00000  Uiso   1.00
C971   C     0.55543   0.03819   0.29972   0.00000  Uiso   1.00
C972   C     0.59084   0.05917   0.29760   0.00000  Uiso   1.00
C973   C     0.70097   0.11737   0.30148   0.00000  Uiso   1.00
C974   C     0.66484   0.09440   0.30318   0.00000  Uiso   1.00
C975   C     0.62736   0.04818   0.00939   0.00000  Uiso   1.00
C976   C     0.66188   0.06826   0.01046   0.00000  Uiso   1.00
C977   C     0.65568   0.07025   0.50514   0.00000  Uiso   1.00
C978   C     0.62171   0.05165   0.50429   0.00000  Uiso   1.00
C979   C     0.61397   0.06407   0.59383   0.00000  Uiso   1.00
C980   C     0.65017   0.08265   0.59480   0.00000  Uiso   1.00
C981   C     0.56119   0.02934   0.54804   0.00000  Uiso   1.00
C982   C     0.59910   0.04984   0.54772   0.00000  Uiso   1.00
C983   C     0.70363   0.11411   0.54825   0.00000  Uiso   1.00
C984   C     0.66974   0.08773   0.54913   0.00000  Uiso   1.00
C985   C     0.59865   0.08655   0.83231   0.00000  Uiso   1.00
C986   C     0.63411   0.10452   0.83560   0.00000  Uiso   1.00
C987   C     0.62225   0.05439   0.75799   0.00000  Uiso   1.00
C988   C     0.65802   0.07075   0.76284   0.00000  Uiso   1.00
C989   C     0.55552   0.04151   0.79278   0.00000  Uiso   1.00
C990   C     0.59250   0.06065   0.79309   0.00000  Uiso   1.00
C991   C     0.70249   0.11555   0.80374   0.00000  Uiso   1.00
C992   C     0.66484   0.09448   0.80149   0.00000  Uiso   1.00
C993   C     0.62337   0.37862   0.25247   0.00000  Uiso   1.00
C994   C     0.59764   0.38191   0.04259   0.00000  Uiso   1.00
C995   C     0.64169   0.24383   0.47187   0.00000  Uiso   1.00
C996   C     0.60765   0.26470   0.47052   0.00000  Uiso   1.00
C997   C     0.59645   0.38168   0.29341   0.00000  Uiso   1.00
C998   C     0.62489   0.22165   0.13653   0.00000  Uiso   1.00
C999   C     0.59050   0.24185   0.13470   0.00000  Uiso   1.00
C1000  C     0.68977   0.20456   0.42699   0.00000  Uiso   1.00
C1001  C     0.65238   0.22460   0.17718   0.00000  Uiso   1.00
C1002  C     0.54817   0.28796   0.17573   0.00000  Uiso   1.00
C1003  C     0.58138   0.26298   0.17663   0.00000  Uiso   1.00
C1004  C     0.64407   0.24683   0.21768   0.00000  Uiso   1.00
C1005  C     0.60559   0.26055   0.22062   0.00000  Uiso   1.00
C1006  C     0.55908   0.36562   0.04188   0.00000  Uiso   1.00
C1007  C     0.56046   0.35994   0.29636   0.00000  Uiso   1.00
C1008  C     0.62517   0.22256   0.38719   0.00000  Uiso   1.00
C1009  C     0.59154   0.24287   0.38797   0.00000  Uiso   1.00
C1010  C     0.65242   0.22319   0.42762   0.00000  Uiso   1.00
C1011  C     0.54689   0.28827   0.42755   0.00000  Uiso   1.00
C1012  C     0.58210   0.26358   0.42978   0.00000  Uiso   1.00
C1013  C     0.69040   0.20604   0.17735   0.00000  Uiso   1.00
C1014  C     0.65707   0.39652   0.25486   0.00000  Uiso   1.00
C1015  C     0.62301   0.38447   0.75111   0.00000  Uiso   1.00
C1016  C     0.68987   0.20109   0.67505   0.00000  Uiso   1.00
C1017  C     0.60275   0.25637   0.96817   0.00000  Uiso   1.00
C1018  C     0.59449   0.38461   0.54547   0.00000  Uiso   1.00
C1019  C     0.62202   0.38045   0.50487   0.00000  Uiso   1.00
C1020  C     0.63944   0.23919   0.96883   0.00000  Uiso   1.00
C1021  C     0.62751   0.22129   0.63050   0.00000  Uiso   1.00
C1022  C     0.59211   0.24221   0.63268   0.00000  Uiso   1.00
C1023  C     0.59813   0.38575   0.79395   0.00000  Uiso   1.00
C1024  C     0.65380   0.22165   0.67298   0.00000  Uiso   1.00
C1025  C     0.54827   0.28851   0.67419   0.00000  Uiso   1.00
C1026  C     0.58321   0.26471   0.67468   0.00000  Uiso   1.00
C1027  C     0.64598   0.24676   0.71198   0.00000  Uiso   1.00
C1028  C     0.61278   0.26882   0.71307   0.00000  Uiso   1.00
C1029  C     0.55680   0.36337   0.54620   0.00000  Uiso   1.00
C1030  C     0.55938   0.36733   0.79472   0.00000  Uiso   1.00
C1031  C     0.63276   0.22873   0.87868   0.00000  Uiso   1.00
C1032  C     0.59791   0.24776   0.87922   0.00000  Uiso   1.00
C1033  C     0.65495   0.22619   0.92172   0.00000  Uiso   1.00
C1034  C     0.54704   0.28510   0.92198   0.00000  Uiso   1.00
C1035  C     0.58296   0.26194   0.92396   0.00000  Uiso   1.00
C1036  C     0.69121   0.20413   0.92404   0.00000  Uiso   1.00
C1037  C     0.65803   0.39819   0.50820   0.00000  Uiso   1.00
C1038  C     0.62160   0.38173   0.99968   0.00000  Uiso   1.00
C1039  C     0.62963   0.56028   0.12300   0.00000  Uiso   1.00
C1040  C     0.59352   0.57855   0.12664   0.00000  Uiso   1.00
C1041  C     0.64764   0.41639   0.08816   0.00000  Uiso   1.00
C1042  C     0.68960   0.53458   0.16901   0.00000  Uiso   1.00
C1043  C     0.65610   0.56024   0.16604   0.00000  Uiso   1.00
C1044  C     0.64823   0.58313   0.20582   0.00000  Uiso   1.00
C1045  C     0.66795   0.41923   0.29659   0.00000  Uiso   1.00
C1046  C     0.70417   0.44649   0.04509   0.00000  Uiso   1.00
C1047  C     0.67015   0.41958   0.04346   0.00000  Uiso   1.00
C1048  C     0.62987   0.55937   0.37957   0.00000  Uiso   1.00
C1049  C     0.70109   0.44440   0.29495   0.00000  Uiso   1.00
C1050  C     0.59473   0.57870   0.38010   0.00000  Uiso   1.00
C1051  C     0.64193   0.41952   0.33908   0.00000  Uiso   1.00
C1052  C     0.69184   0.54157   0.41956   0.00000  Uiso   1.00
C1053  C     0.65762   0.56474   0.42041   0.00000  Uiso   1.00
C1054  C     0.60767   0.40010   0.33679   0.00000  Uiso   1.00
C1055  C     0.64933   0.58720   0.46125   0.00000  Uiso   1.00
C1056  C     0.61164   0.40014   0.08735   0.00000  Uiso   1.00
C1057  C     0.67147   0.42270   0.79328   0.00000  Uiso   1.00
C1058  C     0.70665   0.44594   0.79306   0.00000  Uiso   1.00
C1059  C     0.64772   0.58280   0.96002   0.00000  Uiso   1.00
C1060  C     0.62884   0.55837   0.62569   0.00000  Uiso   1.00
C1061  C     0.60617   0.40484   0.58811   0.00000  Uiso   1.00
C1062  C     0.59497   0.58184   0.62526   0.00000  Uiso   1.00
C1063  C     0.64202   0.42318   0.59007   0.00000  Uiso   1.00
C1064  C     0.69066   0.53606   0.66968   0.00000  Uiso   1.00
C1065  C     0.65373   0.55722   0.66865   0.00000  Uiso   1.00
C1066  C     0.64274   0.57681   0.71137   0.00000  Uiso   1.00
C1067  C     0.70158   0.44623   0.54751   0.00000  Uiso   1.00
C1068  C     0.66732   0.42164   0.54940   0.00000  Uiso   1.00
C1069  C     0.62742   0.55492   0.87961   0.00000  Uiso   1.00
C1070  C     0.59475   0.57858   0.87863   0.00000  Uiso   1.00
C1071  C     0.64841   0.41962   0.83867   0.00000  Uiso   1.00
C1072  C     0.69136   0.53825   0.91945   0.00000  Uiso   1.00
C1073  C     0.65661   0.56039   0.91820   0.00000  Uiso   1.00
C1074  C     0.61136   0.40330   0.83750   0.00000  Uiso   1.00
C1075  C     0.65892   0.40345   0.75126   0.00000  Uiso   1.00
C1076  C     0.65806   0.40041   0.99861   0.00000  Uiso   1.00
C1077  C     0.61078   0.59962   0.71205   0.00000  Uiso   1.00
C1078  C     0.58638   0.60093   0.42104   0.00000  Uiso   1.00
C1079  C     0.55259   0.62401   0.16717   0.00000  Uiso   1.00
C1080  C     0.60539   0.74363   0.08554   0.00000  Uiso   1.00
C1081  C     0.64224   0.75888   0.09218   0.00000  Uiso   1.00
C1082  C     0.58728   0.60047   0.16733   0.00000  Uiso   1.00
C1083  C     0.55822   0.70159   0.04208   0.00000  Uiso   1.00
C1084  C     0.59675   0.72101   0.04503   0.00000  Uiso   1.00
C1085  C     0.70163   0.78098   0.05166   0.00000  Uiso   1.00
C1086  C     0.66704   0.75819   0.05112   0.00000  Uiso   1.00
C1087  C     0.55107   0.62537   0.42064   0.00000  Uiso   1.00
C1088  C     0.61021   0.73403   0.33756   0.00000  Uiso   1.00
C1089  C     0.64490   0.75540   0.33989   0.00000  Uiso   1.00
C1090  C     0.62447   0.71781   0.25140   0.00000  Uiso   1.00
C1091  C     0.66107   0.73558   0.25582   0.00000  Uiso   1.00
C1092  C     0.55802   0.70004   0.29292   0.00000  Uiso   1.00
C1093  C     0.59720   0.71831   0.29248   0.00000  Uiso   1.00
C1094  C     0.70540   0.78056   0.30087   0.00000  Uiso   1.00
C1095  C     0.67151   0.75524   0.29941   0.00000  Uiso   1.00
C1096  C     0.61381   0.60227   0.20738   0.00000  Uiso   1.00
C1097  C     0.62460   0.71639   0.00676   0.00000  Uiso   1.00
C1098  C     0.65920   0.73786   0.00762   0.00000  Uiso   1.00
C1099  C     0.61388   0.60532   0.46180   0.00000  Uiso   1.00
C1100  C     0.65443   0.74546   0.50527   0.00000  Uiso   1.00
C1101  C     0.55046   0.62485   0.67048   0.00000  Uiso   1.00
C1102  C     0.59939   0.74858   0.58450   0.00000  Uiso   1.00
C1103  C     0.63316   0.76953   0.58628   0.00000  Uiso   1.00
C1104  C     0.55571   0.70300   0.54337   0.00000  Uiso   1.00
C1105  C     0.59109   0.72498   0.54293   0.00000  Uiso   1.00
C1106  C     0.69450   0.79119   0.55099   0.00000  Uiso   1.00
C1107  C     0.66152   0.76727   0.54890   0.00000  Uiso   1.00
C1108  C     0.55555   0.62706   0.91181   0.00000  Uiso   1.00
C1109  C     0.60965   0.73842   0.83528   0.00000  Uiso   1.00
C1110  C     0.64703   0.75151   0.84006   0.00000  Uiso   1.00
C1111  C     0.62317   0.72283   0.74611   0.00000  Uiso   1.00
C1112  C     0.65939   0.73992   0.75033   0.00000  Uiso   1.00
C1113  C     0.56076   0.70166   0.78802   0.00000  Uiso   1.00
C1114  C     0.59787   0.72295   0.78868   0.00000  Uiso   1.00
C1115  C     0.70338   0.78213   0.79753   0.00000  Uiso   1.00
C1116  C     0.67130   0.75475   0.79662   0.00000  Uiso   1.00
C1117  C     0.61935   0.72378   0.50380   0.00000  Uiso   1.00
C1118  C     0.58609   0.60203   0.66993   0.00000  Uiso   1.00
C1119  C     0.59047   0.60451   0.91440   0.00000  Uiso   1.00
C1120  C     0.61448   0.60416   0.95792   0.00000  Uiso   1.00
C1121  C     0.65435   0.92495   0.13880   0.00000  Uiso   1.00
C1122  C     0.61910   0.94328   0.14041   0.00000  Uiso   1.00
C1123  C     0.69920   0.87872   0.17638   0.00000  Uiso   1.00
C1124  C     0.66167   0.89905   0.17694   0.00000  Uiso   1.00
C1125  C     0.55430   0.96082   0.17894   0.00000  Uiso   1.00
C1126  C     0.59055   0.93787   0.17861   0.00000  Uiso   1.00
C1127  C     0.63402   0.89564   0.21660   0.00000  Uiso   1.00
C1128  C     0.59838   0.91304   0.21491   0.00000  Uiso   1.00
C1129  C     0.65101   0.92336   0.37992   0.00000  Uiso   1.00
C1130  C     0.61696   0.94142   0.38036   0.00000  Uiso   1.00
C1131  C     0.69569   0.87939   0.42083   0.00000  Uiso   1.00
C1132  C     0.66091   0.90119   0.42195   0.00000  Uiso   1.00
C1133  C     0.55429   0.95899   0.41994   0.00000  Uiso   1.00
C1134  C     0.59082   0.93803   0.42147   0.00000  Uiso   1.00
C1135  C     0.63809   0.90214   0.46709   0.00000  Uiso   1.00
C1136  C     0.60033   0.91523   0.46383   0.00000  Uiso   1.00
C1137  C     0.65204   0.92491   0.64012   0.00000  Uiso   1.00
C1138  C     0.61641   0.94403   0.64009   0.00000  Uiso   1.00
C1139  C     0.69587   0.87771   0.67749   0.00000  Uiso   1.00
C1140  C     0.65738   0.89791   0.67523   0.00000  Uiso   1.00
C1141  C     0.54994   0.95917   0.67358   0.00000  Uiso   1.00
C1142  C     0.58656   0.93592   0.67347   0.00000  Uiso   1.00
C1143  C     0.62917   0.89394   0.71508   0.00000  Uiso   1.00
C1144  C     0.59388   0.91166   0.71352   0.00000  Uiso   1.00
C1145  C     0.65413   0.92677   0.89044   0.00000  Uiso   1.00
C1146  C     0.61666   0.94372   0.88778   0.00000  Uiso   1.00
C1147  C     0.69719   0.87630   0.92696   0.00000  Uiso   1.00
C1148  C     0.66256   0.90098   0.92735   0.00000  Uiso   1.00
C1149  C     0.55293   0.95972   0.92497   0.00000  Uiso   1.00
C1150  C     0.58806   0.93617   0.92351   0.00000  Uiso   1.00
C1151  C     0.63383   0.89441   0.96462   0.00000  Uiso   1.00
C1152  C     0.59864   0.91387   0.96442   0.00000  Uiso   1.00
C1153  C     0.80663   0.13284   0.04925   0.00000  Uiso   1.00
C1154  C     0.84537   0.11519   0.04831   0.00000  Uiso   1.00
C1155  C     0.94958   0.05126   0.04611   0.00000  Uiso   1.00
C1156  C     0.91551   0.07716   0.04687   0.00000  Uiso   1.00
C1157  C     0.85470   0.09542   0.09054   0.00000  Uiso   1.00
C1158  C     0.89256   0.07919   0.09233   0.00000  Uiso   1.00
C1159  C     0.86997   0.11174   0.26304   0.00000  Uiso   1.00
C1160  C     0.90346   0.08997   0.25914   0.00000  Uiso   1.00
C1161  C     0.80648   0.13245   0.30482   0.00000  Uiso   1.00
C1162  C     0.84460   0.11224   0.30517   0.00000  Uiso   1.00
C1163  C     0.94780   0.04786   0.30282   0.00000  Uiso   1.00
C1164  C     0.91469   0.07140   0.30384   0.00000  Uiso   1.00
C1165  C     0.85544   0.09190   0.34761   0.00000  Uiso   1.00
C1166  C     0.89193   0.07317   0.34751   0.00000  Uiso   1.00
C1167  C     0.90555   0.09838   0.00645   0.00000  Uiso   1.00
C1168  C     0.87170   0.11870   0.00774   0.00000  Uiso   1.00
C1169  C     0.80543   0.12493   0.54797   0.00000  Uiso   1.00
C1170  C     0.84267   0.10490   0.54508   0.00000  Uiso   1.00
C1171  C     0.95719   0.04935   0.55236   0.00000  Uiso   1.00
C1172  C     0.91954   0.07228   0.55106   0.00000  Uiso   1.00
C1173  C     0.85513   0.08367   0.58709   0.00000  Uiso   1.00
C1174  C     0.89335   0.06938   0.59192   0.00000  Uiso   1.00
C1175  C     0.87343   0.11308   0.76034   0.00000  Uiso   1.00
C1176  C     0.90991   0.09587   0.76177   0.00000  Uiso   1.00
C1177  C     0.81126   0.13126   0.80259   0.00000  Uiso   1.00
C1178  C     0.84851   0.11044   0.80304   0.00000  Uiso   1.00
C1179  C     0.95350   0.04993   0.80119   0.00000  Uiso   1.00
C1180  C     0.91878   0.07288   0.80234   0.00000  Uiso   1.00
C1181  C     0.85754   0.08791   0.84589   0.00000  Uiso   1.00
C1182  C     0.89376   0.07127   0.84470   0.00000  Uiso   1.00
C1183  C     0.90860   0.09218   0.50781   0.00000  Uiso   1.00
C1184  C     0.87252   0.11084   0.50646   0.00000  Uiso   1.00
C1185  C     0.79792   0.21180   0.17742   0.00000  Uiso   1.00
C1186  C     0.79724   0.20907   0.42843   0.00000  Uiso   1.00
C1187  C     0.90052   0.24472   0.20597   0.00000  Uiso   1.00
C1188  C     0.86455   0.22955   0.21361   0.00000  Uiso   1.00
C1189  C     0.87540   0.27695   0.13030   0.00000  Uiso   1.00
C1190  C     0.83863   0.26347   0.14244   0.00000  Uiso   1.00
C1191  C     0.94210   0.29040   0.16849   0.00000  Uiso   1.00
C1192  C     0.90543   0.26805   0.16519   0.00000  Uiso   1.00
C1193  C     0.83283   0.23676   0.17900   0.00000  Uiso   1.00
C1194  C     0.95240   0.38333   0.05155   0.00000  Uiso   1.00
C1195  C     0.89307   0.25207   0.46679   0.00000  Uiso   1.00
C1196  C     0.85795   0.23381   0.47007   0.00000  Uiso   1.00
C1197  C     0.87511   0.27702   0.38597   0.00000  Uiso   1.00
C1198  C     0.83977   0.25703   0.38750   0.00000  Uiso   1.00
C1199  C     0.93996   0.29238   0.42564   0.00000  Uiso   1.00
C1200  C     0.90446   0.27053   0.42478   0.00000  Uiso   1.00
C1201  C     0.83050   0.23535   0.42864   0.00000  Uiso   1.00
C1202  C     0.94847   0.37874   0.29522   0.00000  Uiso   1.00
C1203  C     0.88665   0.39871   0.33422   0.00000  Uiso   1.00
C1204  C     0.89333   0.25304   0.71652   0.00000  Uiso   1.00
C1205  C     0.85652   0.23620   0.71964   0.00000  Uiso   1.00
C1206  C     0.87493   0.27493   0.63334   0.00000  Uiso   1.00
C1207  C     0.84224   0.25240   0.63423   0.00000  Uiso   1.00
C1208  C     0.94024   0.29358   0.67420   0.00000  Uiso   1.00
C1209  C     0.90268   0.27352   0.67404   0.00000  Uiso   1.00
C1210  C     0.83372   0.23187   0.67634   0.00000  Uiso   1.00
C1211  C     0.95026   0.38397   0.54885   0.00000  Uiso   1.00
C1212  C     0.89506   0.25198   0.96860   0.00000  Uiso   1.00
C1213  C     0.86078   0.23193   0.97029   0.00000  Uiso   1.00
C1214  C     0.87689   0.27590   0.88377   0.00000  Uiso   1.00
C1215  C     0.84262   0.25444   0.88694   0.00000  Uiso   1.00
C1216  C     0.94120   0.29521   0.92404   0.00000  Uiso   1.00
C1217  C     0.90572   0.27113   0.92369   0.00000  Uiso   1.00
C1218  C     0.83315   0.23234   0.93004   0.00000  Uiso   1.00
C1219  C     0.94999   0.38256   0.79622   0.00000  Uiso   1.00
C1220  C     0.79979   0.20815   0.67553   0.00000  Uiso   1.00
C1221  C     0.79978   0.20794   0.92685   0.00000  Uiso   1.00
C1222  C     0.89664   0.58263   0.46715   0.00000  Uiso   1.00
C1223  C     0.84543   0.58284   0.38213   0.00000  Uiso   1.00
C1224  C     0.91609   0.40310   0.30000   0.00000  Uiso   1.00
C1225  C     0.87508   0.44933   0.00542   0.00000  Uiso   1.00
C1226  C     0.90939   0.42909   0.00993   0.00000  Uiso   1.00
C1227  C     0.83777   0.56019   0.42358   0.00000  Uiso   1.00
C1228  C     0.80876   0.46598   0.04220   0.00000  Uiso   1.00
C1229  C     0.84773   0.44706   0.04327   0.00000  Uiso   1.00
C1230  C     0.80226   0.53800   0.42488   0.00000  Uiso   1.00
C1231  C     0.85751   0.42853   0.08836   0.00000  Uiso   1.00
C1232  C     0.89382   0.58552   0.20826   0.00000  Uiso   1.00
C1233  C     0.79369   0.54800   0.17370   0.00000  Uiso   1.00
C1234  C     0.82835   0.57336   0.17543   0.00000  Uiso   1.00
C1235  C     0.87109   0.44564   0.25812   0.00000  Uiso   1.00
C1236  C     0.85056   0.41719   0.33529   0.00000  Uiso   1.00
C1237  C     0.90721   0.42732   0.26127   0.00000  Uiso   1.00
C1238  C     0.86278   0.56106   0.46648   0.00000  Uiso   1.00
C1239  C     0.80532   0.46059   0.29691   0.00000  Uiso   1.00
C1240  C     0.84360   0.44047   0.29622   0.00000  Uiso   1.00
C1241  C     0.85766   0.56895   0.21261   0.00000  Uiso   1.00
C1242  C     0.83541   0.59796   0.13456   0.00000  Uiso   1.00
C1243  C     0.89328   0.41083   0.09434   0.00000  Uiso   1.00
C1244  C     0.92050   0.41050   0.05363   0.00000  Uiso   1.00
C1245  C     0.90373   0.42285   0.50271   0.00000  Uiso   1.00
C1246  C     0.83452   0.56677   0.92255   0.00000  Uiso   1.00
C1247  C     0.84561   0.58325   0.62971   0.00000  Uiso   1.00
C1248  C     0.89702   0.41358   0.84058   0.00000  Uiso   1.00
C1249  C     0.92031   0.41115   0.79581   0.00000  Uiso   1.00
C1250  C     0.86080   0.42981   0.83677   0.00000  Uiso   1.00
C1251  C     0.84842   0.44853   0.79385   0.00000  Uiso   1.00
C1252  C     0.84409   0.58662   0.87889   0.00000  Uiso   1.00
C1253  C     0.86109   0.56142   0.71590   0.00000  Uiso   1.00
C1254  C     0.80265   0.45793   0.53823   0.00000  Uiso   1.00
C1255  C     0.84070   0.43819   0.53906   0.00000  Uiso   1.00
C1256  C     0.89429   0.58237   0.71775   0.00000  Uiso   1.00
C1257  C     0.85017   0.41627   0.58116   0.00000  Uiso   1.00
C1258  C     0.80090   0.54213   0.92047   0.00000  Uiso   1.00
C1259  C     0.89158   0.58910   0.96550   0.00000  Uiso   1.00
C1260  C     0.80141   0.53729   0.67097   0.00000  Uiso   1.00
C1261  C     0.83713   0.55885   0.67134   0.00000  Uiso   1.00
C1262  C     0.87419   0.44875   0.75186   0.00000  Uiso   1.00
C1263  C     0.90919   0.43003   0.75355   0.00000  Uiso   1.00
C1264  C     0.85859   0.56836   0.96425   0.00000  Uiso   1.00
C1265  C     0.80733   0.46318   0.79594   0.00000  Uiso   1.00
C1266  C     0.91467   0.40585   0.54629   0.00000  Uiso   1.00
C1267  C     0.88820   0.40310   0.58795   0.00000  Uiso   1.00
C1268  C     0.86894   0.44258   0.50120   0.00000  Uiso   1.00
C1269  C     0.93604   0.62967   0.16967   0.00000  Uiso   1.00
C1270  C     0.87860   0.60591   0.38332   0.00000  Uiso   1.00
C1271  C     0.84646   0.77756   0.04585   0.00000  Uiso   1.00
C1272  C     0.95454   0.71852   0.04800   0.00000  Uiso   1.00
C1273  C     0.91977   0.74262   0.04856   0.00000  Uiso   1.00
C1274  C     0.85700   0.75729   0.08916   0.00000  Uiso   1.00
C1275  C     0.89364   0.73887   0.08808   0.00000  Uiso   1.00
C1276  C     0.94296   0.62639   0.42572   0.00000  Uiso   1.00
C1277  C     0.87157   0.61478   0.12862   0.00000  Uiso   1.00
C1278  C     0.87526   0.77765   0.25562   0.00000  Uiso   1.00
C1279  C     0.91215   0.75908   0.25874   0.00000  Uiso   1.00
C1280  C     0.90533   0.60522   0.42586   0.00000  Uiso   1.00
C1281  C     0.84931   0.77825   0.29708   0.00000  Uiso   1.00
C1282  C     0.95577   0.71779   0.29989   0.00000  Uiso   1.00
C1283  C     0.92233   0.74337   0.30219   0.00000  Uiso   1.00
C1284  C     0.86256   0.76091   0.34377   0.00000  Uiso   1.00
C1285  C     0.89859   0.74476   0.34723   0.00000  Uiso   1.00
C1286  C     0.91083   0.76329   0.00699   0.00000  Uiso   1.00
C1287  C     0.87381   0.78009   0.00381   0.00000  Uiso   1.00
C1288  C     0.89855   0.61023   0.16749   0.00000  Uiso   1.00
C1289  C     0.81021   0.79792   0.04704   0.00000  Uiso   1.00
C1290  C     0.81034   0.79728   0.29772   0.00000  Uiso   1.00
C1291  C     0.87785   0.60924   0.87812   0.00000  Uiso   1.00
C1292  C     0.90436   0.75808   0.50804   0.00000  Uiso   1.00
C1293  C     0.87993   0.60320   0.63232   0.00000  Uiso   1.00
C1294  C     0.93980   0.62669   0.67685   0.00000  Uiso   1.00
C1295  C     0.90421   0.60686   0.92203   0.00000  Uiso   1.00
C1296  C     0.84213   0.77860   0.54619   0.00000  Uiso   1.00
C1297  C     0.94743   0.71230   0.55012   0.00000  Uiso   1.00
C1298  C     0.91360   0.73645   0.54877   0.00000  Uiso   1.00
C1299  C     0.85139   0.75626   0.58818   0.00000  Uiso   1.00
C1300  C     0.88650   0.73628   0.58914   0.00000  Uiso   1.00
C1301  C     0.94308   0.62618   0.92257   0.00000  Uiso   1.00
C1302  C     0.87455   0.78165   0.75631   0.00000  Uiso   1.00
C1303  C     0.91030   0.76181   0.75807   0.00000  Uiso   1.00
C1304  C     0.84806   0.78054   0.79644   0.00000  Uiso   1.00
C1305  C     0.95217   0.71723   0.80130   0.00000  Uiso   1.00
C1306  C     0.92041   0.74297   0.80310   0.00000  Uiso   1.00
C1307  C     0.86054   0.76407   0.84222   0.00000  Uiso   1.00
C1308  C     0.89478   0.74491   0.84464   0.00000  Uiso   1.00
C1309  C     0.86937   0.77921   0.50576   0.00000  Uiso   1.00
C1310  C     0.90395   0.60429   0.67584   0.00000  Uiso   1.00
C1311  C     0.80499   0.79833   0.54639   0.00000  Uiso   1.00
C1312  C     0.90137   0.91342   0.21022   0.00000  Uiso   1.00
C1313  C     0.86749   0.89307   0.21313   0.00000  Uiso   1.00
C1314  C     0.88003   0.94101   0.13185   0.00000  Uiso   1.00
C1315  C     0.84802   0.92012   0.13175   0.00000  Uiso   1.00
C1316  C     0.94367   0.96153   0.17525   0.00000  Uiso   1.00
C1317  C     0.90737   0.93735   0.17151   0.00000  Uiso   1.00
C1318  C     0.80228   0.87480   0.17250   0.00000  Uiso   1.00
C1319  C     0.84005   0.89386   0.16983   0.00000  Uiso   1.00
C1320  C     0.89763   0.91549   0.46726   0.00000  Uiso   1.00
C1321  C     0.86335   0.89540   0.46496   0.00000  Uiso   1.00
C1322  C     0.88251   0.93735   0.37990   0.00000  Uiso   1.00
C1323  C     0.84855   0.91577   0.37974   0.00000  Uiso   1.00
C1324  C     0.94303   0.96018   0.42272   0.00000  Uiso   1.00
C1325  C     0.90844   0.93582   0.42162   0.00000  Uiso   1.00
C1326  C     0.80229   0.87304   0.42400   0.00000  Uiso   1.00
C1327  C     0.83999   0.89392   0.42207   0.00000  Uiso   1.00
C1328  C     0.80972   0.80023   0.79735   0.00000  Uiso   1.00
C1329  C     0.89725   0.91727   0.71501   0.00000  Uiso   1.00
C1330  C     0.86219   0.89606   0.71645   0.00000  Uiso   1.00
C1331  C     0.88033   0.93901   0.63135   0.00000  Uiso   1.00
C1332  C     0.84583   0.91869   0.63243   0.00000  Uiso   1.00
C1333  C     0.94175   0.96092   0.67416   0.00000  Uiso   1.00
C1334  C     0.90571   0.93853   0.67357   0.00000  Uiso   1.00
C1335  C     0.80164   0.87282   0.67319   0.00000  Uiso   1.00
C1336  C     0.83800   0.89548   0.67362   0.00000  Uiso   1.00
C1337  C     0.89583   0.91827   0.96689   0.00000  Uiso   1.00
C1338  C     0.85875   0.90193   0.97095   0.00000  Uiso   1.00
C1339  C     0.88223   0.93553   0.87999   0.00000  Uiso   1.00
C1340  C     0.84739   0.91507   0.88220   0.00000  Uiso   1.00
C1341  C     0.94328   0.95606   0.92188   0.00000  Uiso   1.00
C1342  C     0.90503   0.93726   0.92213   0.00000  Uiso   1.00
C1343  C     0.80056   0.87445   0.92882   0.00000  Uiso   1.00
C1344  C     0.83572   0.89835   0.92824   0.00000  Uiso   1.00
O1345  O     0.04265   0.02759   0.25408   0.00000  Uiso   1.00
O1346  O     0.20477   0.19467   0.46473   0.00000  Uiso   1.00
O1347  O     0.21747   0.12579   0.08585   0.00000  Uiso   1.00
O1348  O     0.04475   0.02526   0.34077   0.00000  Uiso   1.00
O1349  O     0.04248   0.02578   0.09263   0.00000  Uiso   1.00
O1350  O     0.21962   0.12323   0.25580   0.00000  Uiso   1.00
O1351  O     0.21892   0.12244   0.34264   0.00000  Uiso   1.00
O1352  O     0.20736   0.19135   0.21453   0.00000  Uiso   1.00
O1353  O     0.03821   0.02940   0.00424   0.00000  Uiso   1.00
O1354  O     0.21228   0.19827   0.37593   0.00000  Uiso   1.00
O1355  O     0.21121   0.19888   0.96840   0.00000  Uiso   1.00
O1356  O     0.04233   0.02439   0.75431   0.00000  Uiso   1.00
O1357  O     0.21800   0.12522   0.59162   0.00000  Uiso   1.00
O1358  O     0.21344   0.12876   0.84349   0.00000  Uiso   1.00
O1359  O     0.04672   0.01709   0.59165   0.00000  Uiso   1.00
O1360  O     0.20804   0.12972   0.75732   0.00000  Uiso   1.00
O1361  O     0.04702   0.01772   0.84063   0.00000  Uiso   1.00
O1362  O     0.20519   0.19667   0.71549   0.00000  Uiso   1.00
O1363  O     0.04422   0.02336   0.50351   0.00000  Uiso   1.00
O1364  O     0.21471   0.12421   0.50387   0.00000  Uiso   1.00
O1365  O     0.20416   0.19439   0.62854   0.00000  Uiso   1.00
O1366  O     0.21579   0.12525   0.99813   0.00000  Uiso   1.00
O1367  O     0.03627   0.30046   0.46785   0.00000  Uiso   1.00
O1368  O     0.03701   0.36448   0.25363   0.00000  Uiso   1.00
O1369  O     0.04336   0.35183   0.08752   0.00000  Uiso   1.00
O1370  O     0.04295   0.35268   0.33905   0.00000  Uiso   1.00
O1371  O     0.03472   0.29656   0.37931   0.00000  Uiso   1.00
O1372  O     0.03652   0.29777   0.13403   0.00000  Uiso   1.00
O1373  O     0.03497   0.29669   0.22180   0.00000  Uiso   1.00
O1374  O     0.03804   0.36598   0.00186   0.00000  Uiso   1.00
O1375  O     0.21294   0.20018   0.12790   0.00000  Uiso   1.00
O1376  O     0.03774   0.30449   0.96656   0.00000  Uiso   1.00
O1377  O     0.03929   0.36397   0.75319   0.00000  Uiso   1.00
O1378  O     0.04174   0.36039   0.84164   0.00000  Uiso   1.00
O1379  O     0.03430   0.30010   0.62634   0.00000  Uiso   1.00
O1380  O     0.03708   0.30151   0.87915   0.00000  Uiso   1.00
O1381  O     0.03689   0.30347   0.71531   0.00000  Uiso   1.00
O1382  O     0.03956   0.36319   0.59032   0.00000  Uiso   1.00
O1383  O     0.20975   0.20173   0.87815   0.00000  Uiso   1.00
O1384  O     0.03977   0.36156   0.50294   0.00000  Uiso   1.00
O1385  O     0.20591   0.46622   0.24806   0.00000  Uiso   1.00
O1386  O     0.20660   0.52898   0.12411   0.00000  Uiso   1.00
O1387  O     0.21190   0.46612   0.33789   0.00000  Uiso   1.00
O1388  O     0.20796   0.53207   0.37838   0.00000  Uiso   1.00
O1389  O     0.21209   0.53199   0.21262   0.00000  Uiso   1.00
O1390  O     0.21027   0.52740   0.46496   0.00000  Uiso   1.00
O1391  O     0.21945   0.45421   0.09345   0.00000  Uiso   1.00
O1392  O     0.21887   0.45679   0.00547   0.00000  Uiso   1.00
O1393  O     0.20633   0.52903   0.71341   0.00000  Uiso   1.00
O1394  O     0.20725   0.53330   0.87554   0.00000  Uiso   1.00
O1395  O     0.20269   0.52548   0.96322   0.00000  Uiso   1.00
O1396  O     0.21309   0.46469   0.84121   0.00000  Uiso   1.00
O1397  O     0.21375   0.53821   0.62801   0.00000  Uiso   1.00
O1398  O     0.21521   0.46644   0.58712   0.00000  Uiso   1.00
O1399  O     0.21425   0.45999   0.75098   0.00000  Uiso   1.00
O1400  O     0.22243   0.45383   0.50212   0.00000  Uiso   1.00
O1401  O     0.03946   0.69109   0.25614   0.00000  Uiso   1.00
O1402  O     0.04013   0.63667   0.38402   0.00000  Uiso   1.00
O1403  O     0.04292   0.68949   0.34449   0.00000  Uiso   1.00
O1404  O     0.21462   0.79321   0.00176   0.00000  Uiso   1.00
O1405  O     0.04239   0.69275   0.09493   0.00000  Uiso   1.00
O1406  O     0.03461   0.63172   0.47027   0.00000  Uiso   1.00
O1407  O     0.03366   0.63180   0.13042   0.00000  Uiso   1.00
O1408  O     0.03895   0.63618   0.21914   0.00000  Uiso   1.00
O1409  O     0.03600   0.69797   0.00815   0.00000  Uiso   1.00
O1410  O     0.21105   0.79679   0.24476   0.00000  Uiso   1.00
O1411  O     0.21367   0.79985   0.33340   0.00000  Uiso   1.00
O1412  O     0.03918   0.69862   0.75348   0.00000  Uiso   1.00
O1413  O     0.03837   0.63683   0.88144   0.00000  Uiso   1.00
O1414  O     0.04313   0.69630   0.84011   0.00000  Uiso   1.00
O1415  O     0.21949   0.79023   0.75227   0.00000  Uiso   1.00
O1416  O     0.03486   0.63219   0.63070   0.00000  Uiso   1.00
O1417  O     0.03678   0.63741   0.71917   0.00000  Uiso   1.00
O1418  O     0.03716   0.63460   0.97004   0.00000  Uiso   1.00
O1419  O     0.04030   0.69243   0.59393   0.00000  Uiso   1.00
O1420  O     0.21591   0.79217   0.50162   0.00000  Uiso   1.00
O1421  O     0.04170   0.69008   0.50550   0.00000  Uiso   1.00
O1422  O     0.03032   0.96090   0.46441   0.00000  Uiso   1.00
O1423  O     0.03659   0.97116   0.12289   0.00000  Uiso   1.00
O1424  O     0.21636   0.87614   0.12217   0.00000  Uiso   1.00
O1425  O     0.03430   0.96687   0.21258   0.00000  Uiso   1.00
O1426  O     0.20630   0.86313   0.20746   0.00000  Uiso   1.00
O1427  O     0.20275   0.85945   0.45562   0.00000  Uiso   1.00
O1428  O     0.03545   0.96455   0.37728   0.00000  Uiso   1.00
O1429  O     0.20947   0.86872   0.36732   0.00000  Uiso   1.00
O1430  O     0.20815   0.80617   0.08864   0.00000  Uiso   1.00
O1431  O     0.03632   0.96823   0.96938   0.00000  Uiso   1.00
O1432  O     0.21675   0.87217   0.87917   0.00000  Uiso   1.00
O1433  O     0.03422   0.96011   0.63041   0.00000  Uiso   1.00
O1434  O     0.21003   0.87138   0.62686   0.00000  Uiso   1.00
O1435  O     0.03720   0.96752   0.71711   0.00000  Uiso   1.00
O1436  O     0.20328   0.85496   0.71131   0.00000  Uiso   1.00
O1437  O     0.20669   0.85946   0.96501   0.00000  Uiso   1.00
O1438  O     0.03319   0.95964   0.88173   0.00000  Uiso   1.00
O1439  O     0.21439   0.80149   0.58884   0.00000  Uiso   1.00
O1440  O     0.21165   0.80389   0.83992   0.00000  Uiso   1.00
O1441  O     0.29464   0.13626   0.33874   0.00000  Uiso   1.00
O1442  O     0.46856   0.04018   0.34693   0.00000  Uiso   1.00
O1443  O     0.28658   0.19814   0.12572   0.00000  Uiso   1.00
O1444  O     0.46067   0.03428   0.25592   0.00000  Uiso   1.00
O1445  O     0.29466   0.13903   0.25105   0.00000  Uiso   1.00
O1446  O     0.29769   0.14619   0.08966   0.00000  Uiso   1.00
O1447  O     0.46383   0.03652   0.09343   0.00000  Uiso   1.00
O1448  O     0.46430   0.03604   0.00587   0.00000  Uiso   1.00
O1449  O     0.28463   0.19773   0.21368   0.00000  Uiso   1.00
O1450  O     0.28245   0.19502   0.46753   0.00000  Uiso   1.00
O1451  O     0.29040   0.19286   0.37926   0.00000  Uiso   1.00
O1452  O     0.29656   0.14132   0.00200   0.00000  Uiso   1.00
O1453  O     0.29316   0.14585   0.84155   0.00000  Uiso   1.00
O1454  O     0.29236   0.13984   0.50105   0.00000  Uiso   1.00
O1455  O     0.46527   0.04096   0.84560   0.00000  Uiso   1.00
O1456  O     0.29600   0.14513   0.59039   0.00000  Uiso   1.00
O1457  O     0.46928   0.04119   0.58915   0.00000  Uiso   1.00
O1458  O     0.46417   0.03525   0.50135   0.00000  Uiso   1.00
O1459  O     0.46604   0.04359   0.75478   0.00000  Uiso   1.00
O1460  O     0.28892   0.13580   0.75496   0.00000  Uiso   1.00
O1461  O     0.28538   0.19703   0.71888   0.00000  Uiso   1.00
O1462  O     0.28592   0.19883   0.96235   0.00000  Uiso   1.00
O1463  O     0.46415   0.36795   0.00213   0.00000  Uiso   1.00
O1464  O     0.46436   0.37095   0.25608   0.00000  Uiso   1.00
O1465  O     0.45457   0.30468   0.21628   0.00000  Uiso   1.00
O1466  O     0.46219   0.36835   0.34340   0.00000  Uiso   1.00
O1467  O     0.45922   0.29419   0.37911   0.00000  Uiso   1.00
O1468  O     0.45793   0.30485   0.12854   0.00000  Uiso   1.00
O1469  O     0.46409   0.37149   0.09054   0.00000  Uiso   1.00
O1470  O     0.45287   0.30397   0.46485   0.00000  Uiso   1.00
O1471  O     0.46519   0.37154   0.51074   0.00000  Uiso   1.00
O1472  O     0.45516   0.30488   0.71765   0.00000  Uiso   1.00
O1473  O     0.46680   0.36953   0.84228   0.00000  Uiso   1.00
O1474  O     0.46232   0.29423   0.62947   0.00000  Uiso   1.00
O1475  O     0.46200   0.36568   0.59815   0.00000  Uiso   1.00
O1476  O     0.46117   0.30064   0.87460   0.00000  Uiso   1.00
O1477  O     0.45305   0.30771   0.96186   0.00000  Uiso   1.00
O1478  O     0.46498   0.37045   0.75274   0.00000  Uiso   1.00
O1479  O     0.28115   0.20232   0.63235   0.00000  Uiso   1.00
O1480  O     0.28598   0.20099   0.87399   0.00000  Uiso   1.00
O1481  O     0.28637   0.46349   0.25458   0.00000  Uiso   1.00
O1482  O     0.29476   0.48102   0.34047   0.00000  Uiso   1.00
O1483  O     0.27788   0.54027   0.37975   0.00000  Uiso   1.00
O1484  O     0.29244   0.52606   0.21545   0.00000  Uiso   1.00
O1485  O     0.28717   0.52762   0.12820   0.00000  Uiso   1.00
O1486  O     0.29249   0.52147   0.46170   0.00000  Uiso   1.00
O1487  O     0.29350   0.47179   0.08652   0.00000  Uiso   1.00
O1488  O     0.29284   0.47557   0.83568   0.00000  Uiso   1.00
O1489  O     0.28572   0.53186   0.87918   0.00000  Uiso   1.00
O1490  O     0.28874   0.52837   0.71955   0.00000  Uiso   1.00
O1491  O     0.28722   0.53517   0.62979   0.00000  Uiso   1.00
O1492  O     0.29638   0.48170   0.59507   0.00000  Uiso   1.00
O1493  O     0.28721   0.53002   0.96667   0.00000  Uiso   1.00
O1494  O     0.28879   0.46570   0.75040   0.00000  Uiso   1.00
O1495  O     0.29401   0.47234   0.99877   0.00000  Uiso   1.00
O1496  O     0.29282   0.46802   0.50891   0.00000  Uiso   1.00
O1497  O     0.46184   0.70098   0.08979   0.00000  Uiso   1.00
O1498  O     0.45625   0.63437   0.45952   0.00000  Uiso   1.00
O1499  O     0.46039   0.63270   0.12250   0.00000  Uiso   1.00
O1500  O     0.46688   0.70681   0.25122   0.00000  Uiso   1.00
O1501  O     0.46111   0.62559   0.37434   0.00000  Uiso   1.00
O1502  O     0.45978   0.63524   0.21017   0.00000  Uiso   1.00
O1503  O     0.45619   0.69462   0.33912   0.00000  Uiso   1.00
O1504  O     0.45962   0.70514   0.49894   0.00000  Uiso   1.00
O1505  O     0.46863   0.70999   0.00144   0.00000  Uiso   1.00
O1506  O     0.46293   0.63124   0.87502   0.00000  Uiso   1.00
O1507  O     0.47080   0.71216   0.75214   0.00000  Uiso   1.00
O1508  O     0.46381   0.70443   0.58639   0.00000  Uiso   1.00
O1509  O     0.45783   0.63823   0.96208   0.00000  Uiso   1.00
O1510  O     0.45847   0.63237   0.62538   0.00000  Uiso   1.00
O1511  O     0.45462   0.63956   0.71172   0.00000  Uiso   1.00
O1512  O     0.46313   0.70096   0.83722   0.00000  Uiso   1.00
O1513  O     0.28757   0.80073   0.24721   0.00000  Uiso   1.00
O1514  O     0.28088   0.86983   0.46049   0.00000  Uiso   1.00
O1515  O     0.46149   0.96476   0.38031   0.00000  Uiso   1.00
O1516  O     0.45546   0.96505   0.46660   0.00000  Uiso   1.00
O1517  O     0.29009   0.86168   0.21195   0.00000  Uiso   1.00
O1518  O     0.46315   0.96323   0.13276   0.00000  Uiso   1.00
O1519  O     0.45791   0.96985   0.21993   0.00000  Uiso   1.00
O1520  O     0.28598   0.86919   0.37252   0.00000  Uiso   1.00
O1521  O     0.28548   0.87267   0.12457   0.00000  Uiso   1.00
O1522  O     0.29452   0.81400   0.33053   0.00000  Uiso   1.00
O1523  O     0.29577   0.81511   0.08618   0.00000  Uiso   1.00
O1524  O     0.29038   0.81048   0.49592   0.00000  Uiso   1.00
O1525  O     0.46076   0.97133   0.96665   0.00000  Uiso   1.00
O1526  O     0.46386   0.97117   0.87898   0.00000  Uiso   1.00
O1527  O     0.29493   0.81769   0.58430   0.00000  Uiso   1.00
O1528  O     0.28764   0.86274   0.96070   0.00000  Uiso   1.00
O1529  O     0.28561   0.86696   0.71032   0.00000  Uiso   1.00
O1530  O     0.46026   0.96948   0.63260   0.00000  Uiso   1.00
O1531  O     0.45270   0.97707   0.71841   0.00000  Uiso   1.00
O1532  O     0.29093   0.86600   0.87151   0.00000  Uiso   1.00
O1533  O     0.28436   0.87293   0.62415   0.00000  Uiso   1.00
O1534  O     0.29294   0.80346   0.74453   0.00000  Uiso   1.00
O1535  O     0.29603   0.81196   0.83137   0.00000  Uiso   1.00
O1536  O     0.29048   0.80136   0.99947   0.00000  Uiso   1.00
O1537  O     0.53835   0.03205   0.25648   0.00000  Uiso   1.00
O1538  O     0.71263   0.13065   0.34555   0.00000  Uiso   1.00
O1539  O     0.54160   0.02834   0.34440   0.00000  Uiso   1.00
O1540  O     0.71463   0.12782   0.09736   0.00000  Uiso   1.00
O1541  O     0.71306   0.12651   0.00783   0.00000  Uiso   1.00
O1542  O     0.54780   0.02142   0.09405   0.00000  Uiso   1.00
O1543  O     0.71235   0.12886   0.25750   0.00000  Uiso   1.00
O1544  O     0.70574   0.19290   0.47073   0.00000  Uiso   1.00
O1545  O     0.70527   0.19574   0.22043   0.00000  Uiso   1.00
O1546  O     0.54418   0.02842   0.00716   0.00000  Uiso   1.00
O1547  O     0.70660   0.19800   0.13428   0.00000  Uiso   1.00
O1548  O     0.70525   0.19604   0.38359   0.00000  Uiso   1.00
O1549  O     0.53851   0.03385   0.74945   0.00000  Uiso   1.00
O1550  O     0.70474   0.19366   0.72053   0.00000  Uiso   1.00
O1551  O     0.71610   0.12694   0.50462   0.00000  Uiso   1.00
O1552  O     0.54276   0.03116   0.83805   0.00000  Uiso   1.00
O1553  O     0.70526   0.19485   0.96852   0.00000  Uiso   1.00
O1554  O     0.71804   0.12264   0.59340   0.00000  Uiso   1.00
O1555  O     0.54499   0.02470   0.59241   0.00000  Uiso   1.00
O1556  O     0.72028   0.12353   0.75995   0.00000  Uiso   1.00
O1557  O     0.71144   0.13077   0.84800   0.00000  Uiso   1.00
O1558  O     0.70657   0.19152   0.63094   0.00000  Uiso   1.00
O1559  O     0.54414   0.01881   0.50495   0.00000  Uiso   1.00
O1560  O     0.70915   0.19745   0.88072   0.00000  Uiso   1.00
O1561  O     0.54259   0.35578   0.25321   0.00000  Uiso   1.00
O1562  O     0.53361   0.29718   0.22026   0.00000  Uiso   1.00
O1563  O     0.54481   0.35320   0.34140   0.00000  Uiso   1.00
O1564  O     0.53066   0.29766   0.46982   0.00000  Uiso   1.00
O1565  O     0.53620   0.30067   0.38178   0.00000  Uiso   1.00
O1566  O     0.53722   0.30155   0.13086   0.00000  Uiso   1.00
O1567  O     0.54265   0.36038   0.08607   0.00000  Uiso   1.00
O1568  O     0.53708   0.36650   0.75375   0.00000  Uiso   1.00
O1569  O     0.53353   0.29741   0.62941   0.00000  Uiso   1.00
O1570  O     0.54647   0.35520   0.83851   0.00000  Uiso   1.00
O1571  O     0.53643   0.29764   0.87750   0.00000  Uiso   1.00
O1572  O     0.52994   0.29399   0.96754   0.00000  Uiso   1.00
O1573  O     0.54255   0.35616   0.59158   0.00000  Uiso   1.00
O1574  O     0.53896   0.30493   0.71809   0.00000  Uiso   1.00
O1575  O     0.53819   0.35911   0.50262   0.00000  Uiso   1.00
O1576  O     0.54376   0.35548   0.99786   0.00000  Uiso   1.00
O1577  O     0.70709   0.53168   0.46398   0.00000  Uiso   1.00
O1578  O     0.71417   0.46006   0.08888   0.00000  Uiso   1.00
O1579  O     0.71339   0.45882   0.33856   0.00000  Uiso   1.00
O1580  O     0.70746   0.52763   0.12676   0.00000  Uiso   1.00
O1581  O     0.70797   0.53254   0.37549   0.00000  Uiso   1.00
O1582  O     0.71758   0.45780   0.00109   0.00000  Uiso   1.00
O1583  O     0.71362   0.45667   0.25077   0.00000  Uiso   1.00
O1584  O     0.70269   0.52442   0.21363   0.00000  Uiso   1.00
O1585  O     0.70402   0.52775   0.96336   0.00000  Uiso   1.00
O1586  O     0.70705   0.53058   0.62609   0.00000  Uiso   1.00
O1587  O     0.71820   0.45850   0.74979   0.00000  Uiso   1.00
O1588  O     0.70499   0.52565   0.71325   0.00000  Uiso   1.00
O1589  O     0.71171   0.53463   0.87911   0.00000  Uiso   1.00
O1590  O     0.71540   0.46066   0.83694   0.00000  Uiso   1.00
O1591  O     0.71321   0.46092   0.59074   0.00000  Uiso   1.00
O1592  O     0.71423   0.45649   0.50215   0.00000  Uiso   1.00
O1593  O     0.54390   0.69146   0.24896   0.00000  Uiso   1.00
O1594  O     0.54069   0.69176   0.33596   0.00000  Uiso   1.00
O1595  O     0.53774   0.63765   0.46374   0.00000  Uiso   1.00
O1596  O     0.71697   0.79009   0.00763   0.00000  Uiso   1.00
O1597  O     0.53218   0.62778   0.37645   0.00000  Uiso   1.00
O1598  O     0.53769   0.63165   0.12249   0.00000  Uiso   1.00
O1599  O     0.53813   0.63521   0.21074   0.00000  Uiso   1.00
O1600  O     0.54327   0.69148   0.08671   0.00000  Uiso   1.00
O1601  O     0.71778   0.79303   0.25835   0.00000  Uiso   1.00
O1602  O     0.71523   0.79343   0.34513   0.00000  Uiso   1.00
O1603  O     0.71095   0.79712   0.09333   0.00000  Uiso   1.00
O1604  O     0.54286   0.69690   0.74422   0.00000  Uiso   1.00
O1605  O     0.54088   0.63767   0.86867   0.00000  Uiso   1.00
O1606  O     0.54108   0.63869   0.95836   0.00000  Uiso   1.00
O1607  O     0.54289   0.69466   0.83248   0.00000  Uiso   1.00
O1608  O     0.54218   0.69345   0.99727   0.00000  Uiso   1.00
O1609  O     0.53176   0.63145   0.62780   0.00000  Uiso   1.00
O1610  O     0.54169   0.64152   0.71455   0.00000  Uiso   1.00
O1611  O     0.54165   0.69153   0.58680   0.00000  Uiso   1.00
O1612  O     0.71324   0.79673   0.84146   0.00000  Uiso   1.00
O1613  O     0.53829   0.69492   0.50110   0.00000  Uiso   1.00
O1614  O     0.71975   0.79047   0.75398   0.00000  Uiso   1.00
O1615  O     0.53377   0.96263   0.46318   0.00000  Uiso   1.00
O1616  O     0.53941   0.96975   0.13340   0.00000  Uiso   1.00
O1617  O     0.70879   0.86533   0.13123   0.00000  Uiso   1.00
O1618  O     0.53824   0.96994   0.22245   0.00000  Uiso   1.00
O1619  O     0.70989   0.86507   0.21952   0.00000  Uiso   1.00
O1620  O     0.71512   0.87310   0.46346   0.00000  Uiso   1.00
O1621  O     0.54544   0.97358   0.37719   0.00000  Uiso   1.00
O1622  O     0.70437   0.86159   0.37897   0.00000  Uiso   1.00
O1623  O     0.53537   0.96557   0.96830   0.00000  Uiso   1.00
O1624  O     0.53974   0.97149   0.62999   0.00000  Uiso   1.00
O1625  O     0.71090   0.86804   0.63345   0.00000  Uiso   1.00
O1626  O     0.53334   0.96769   0.71569   0.00000  Uiso   1.00
O1627  O     0.70629   0.86243   0.72043   0.00000  Uiso   1.00
O1628  O     0.70850   0.86320   0.96979   0.00000  Uiso   1.00
O1629  O     0.54194   0.97524   0.88209   0.00000  Uiso   1.00
O1630  O     0.71109   0.86770   0.88099   0.00000  Uiso   1.00
O1631  O     0.71093   0.80002   0.59627   0.00000  Uiso   1.00
O1632  O     0.70889   0.80243   0.50716   0.00000  Uiso   1.00
O1633  O     0.96466   0.03959   0.25795   0.00000  Uiso   1.00
O1634  O     0.79189   0.14303   0.34774   0.00000  Uiso   1.00
O1635  O     0.95824   0.03390   0.34609   0.00000  Uiso   1.00
O1636  O     0.78617   0.19770   0.22088   0.00000  Uiso   1.00
O1637  O     0.79217   0.14256   0.09377   0.00000  Uiso   1.00
O1638  O     0.96093   0.03747   0.08993   0.00000  Uiso   1.00
O1639  O     0.79040   0.13798   0.26070   0.00000  Uiso   1.00
O1640  O     0.96069   0.03839   0.00032   0.00000  Uiso   1.00
O1641  O     0.78883   0.14014   0.00614   0.00000  Uiso   1.00
O1642  O     0.78722   0.19543   0.47097   0.00000  Uiso   1.00
O1643  O     0.79473   0.14174   0.75782   0.00000  Uiso   1.00
O1644  O     0.79290   0.13560   0.84695   0.00000  Uiso   1.00
O1645  O     0.78928   0.19376   0.63204   0.00000  Uiso   1.00
O1646  O     0.96532   0.03364   0.84321   0.00000  Uiso   1.00
O1647  O     0.96866   0.03659   0.59718   0.00000  Uiso   1.00
O1648  O     0.79262   0.13790   0.59058   0.00000  Uiso   1.00
O1649  O     0.96611   0.04014   0.75724   0.00000  Uiso   1.00
O1650  O     0.78348   0.19936   0.71803   0.00000  Uiso   1.00
O1651  O     0.96911   0.03733   0.50853   0.00000  Uiso   1.00
O1652  O     0.78525   0.19484   0.97052   0.00000  Uiso   1.00
O1653  O     0.79064   0.13373   0.50474   0.00000  Uiso   1.00
O1654  O     0.95383   0.30391   0.21241   0.00000  Uiso   1.00
O1655  O     0.96114   0.36402   0.33958   0.00000  Uiso   1.00
O1656  O     0.96147   0.29604   0.12697   0.00000  Uiso   1.00
O1657  O     0.95844   0.29563   0.38144   0.00000  Uiso   1.00
O1658  O     0.96269   0.36805   0.09464   0.00000  Uiso   1.00
O1659  O     0.96291   0.36762   0.25084   0.00000  Uiso   1.00
O1660  O     0.95232   0.30598   0.46799   0.00000  Uiso   1.00
O1661  O     0.96436   0.37303   0.00544   0.00000  Uiso   1.00
O1662  O     0.78469   0.20208   0.13381   0.00000  Uiso   1.00
O1663  O     0.78076   0.20083   0.38400   0.00000  Uiso   1.00
O1664  O     0.95873   0.30197   0.87833   0.00000  Uiso   1.00
O1665  O     0.95515   0.30456   0.71667   0.00000  Uiso   1.00
O1666  O     0.96486   0.37286   0.84134   0.00000  Uiso   1.00
O1667  O     0.95733   0.30187   0.63038   0.00000  Uiso   1.00
O1668  O     0.78559   0.20078   0.88200   0.00000  Uiso   1.00
O1669  O     0.96123   0.36886   0.59344   0.00000  Uiso   1.00
O1670  O     0.95425   0.30776   0.96717   0.00000  Uiso   1.00
O1671  O     0.96429   0.37220   0.75249   0.00000  Uiso   1.00
O1672  O     0.96606   0.37295   0.50483   0.00000  Uiso   1.00
O1673  O     0.79223   0.47263   0.33944   0.00000  Uiso   1.00
O1674  O     0.77886   0.53943   0.12833   0.00000  Uiso   1.00
O1675  O     0.78836   0.53049   0.37950   0.00000  Uiso   1.00
O1676  O     0.79642   0.47719   0.08587   0.00000  Uiso   1.00
O1677  O     0.78744   0.46872   0.25425   0.00000  Uiso   1.00
O1678  O     0.78458   0.53065   0.21613   0.00000  Uiso   1.00
O1679  O     0.78888   0.52502   0.46823   0.00000  Uiso   1.00
O1680  O     0.79068   0.47055   0.49483   0.00000  Uiso   1.00
O1681  O     0.78566   0.53161   0.62681   0.00000  Uiso   1.00
O1682  O     0.79500   0.47980   0.83673   0.00000  Uiso   1.00
O1683  O     0.78984   0.52308   0.71291   0.00000  Uiso   1.00
O1684  O     0.78853   0.53124   0.87589   0.00000  Uiso   1.00
O1685  O     0.78840   0.46594   0.75184   0.00000  Uiso   1.00
O1686  O     0.78549   0.53111   0.96248   0.00000  Uiso   1.00
O1687  O     0.78867   0.46819   0.58433   0.00000  Uiso   1.00
O1688  O     0.79223   0.47247   0.99875   0.00000  Uiso   1.00
O1689  O     0.96419   0.70555   0.00362   0.00000  Uiso   1.00
O1690  O     0.95167   0.64039   0.12618   0.00000  Uiso   1.00
O1691  O     0.96828   0.70668   0.09112   0.00000  Uiso   1.00
O1692  O     0.96497   0.70456   0.25734   0.00000  Uiso   1.00
O1693  O     0.96005   0.63392   0.38193   0.00000  Uiso   1.00
O1694  O     0.95911   0.63654   0.46635   0.00000  Uiso   1.00
O1695  O     0.95338   0.63527   0.21334   0.00000  Uiso   1.00
O1696  O     0.96787   0.70413   0.34563   0.00000  Uiso   1.00
O1697  O     0.96086   0.63192   0.87845   0.00000  Uiso   1.00
O1698  O     0.96096   0.70503   0.75609   0.00000  Uiso   1.00
O1699  O     0.95332   0.64048   0.96726   0.00000  Uiso   1.00
O1700  O     0.95598   0.69633   0.59380   0.00000  Uiso   1.00
O1701  O     0.95174   0.64074   0.72001   0.00000  Uiso   1.00
O1702  O     0.96709   0.70679   0.84288   0.00000  Uiso   1.00
O1703  O     0.96127   0.62742   0.63591   0.00000  Uiso   1.00
O1704  O     0.96492   0.70540   0.50651   0.00000  Uiso   1.00
O1705  O     0.96374   0.96170   0.38057   0.00000  Uiso   1.00
O1706  O     0.79459   0.80679   0.00498   0.00000  Uiso   1.00
O1707  O     0.78900   0.86433   0.46911   0.00000  Uiso   1.00
O1708  O     0.96110   0.96743   0.13263   0.00000  Uiso   1.00
O1709  O     0.79147   0.86164   0.21487   0.00000  Uiso   1.00
O1710  O     0.95285   0.97445   0.46506   0.00000  Uiso   1.00
O1711  O     0.95607   0.97465   0.21767   0.00000  Uiso   1.00
O1712  O     0.78466   0.86363   0.38166   0.00000  Uiso   1.00
O1713  O     0.78569   0.86648   0.12934   0.00000  Uiso   1.00
O1714  O     0.79349   0.80620   0.09014   0.00000  Uiso   1.00
O1715  O     0.79529   0.80941   0.25410   0.00000  Uiso   1.00
O1716  O     0.79435   0.80433   0.34432   0.00000  Uiso   1.00
O1717  O     0.79222   0.80819   0.50291   0.00000  Uiso   1.00
O1718  O     0.95980   0.96690   0.63189   0.00000  Uiso   1.00
O1719  O     0.96131   0.96297   0.87867   0.00000  Uiso   1.00
O1720  O     0.79224   0.80450   0.75467   0.00000  Uiso   1.00
O1721  O     0.79011   0.80704   0.59258   0.00000  Uiso   1.00
O1722  O     0.78793   0.86114   0.97200   0.00000  Uiso   1.00
O1723  O     0.78901   0.86098   0.71801   0.00000  Uiso   1.00
O1724  O     0.95566   0.96861   0.96613   0.00000  Uiso   1.00
O1725  O     0.95541   0.97056   0.71911   0.00000  Uiso   1.00
O1726  O     0.78501   0.86825   0.88404   0.00000  Uiso   1.00
O1727  O     0.78738   0.86407   0.62946   0.00000  Uiso   1.00
O1728  O     0.79493   0.80989   0.84064   0.00000  Uiso   1.00
O1729  O     0.24302   0.13999   0.42021   0.00000  Uiso   1.00
O1730  O     0.23851   0.18307   0.29443   0.00000  Uiso   1.00
O1731  O     0.24192   0.14257   0.17012   0.00000  Uiso   1.00
O1732  O     0.23866   0.18745   0.04550   0.00000  Uiso   1.00
O1733  O     0.24443   0.14230   0.67164   0.00000  Uiso   1.00
O1734  O     0.23177   0.18951   0.79482   0.00000  Uiso   1.00
O1735  O     0.24193   0.14375   0.91724   0.00000  Uiso   1.00
O1736  O     0.23576   0.18381   0.54471   0.00000  Uiso   1.00
O1737  O     0.23862   0.52177   0.29047   0.00000  Uiso   1.00
O1738  O     0.23641   0.51881   0.04395   0.00000  Uiso   1.00
O1739  O     0.24495   0.47301   0.41710   0.00000  Uiso   1.00
O1740  O     0.24074   0.47537   0.16894   0.00000  Uiso   1.00
O1741  O     0.24172   0.47378   0.91843   0.00000  Uiso   1.00
O1742  O     0.23985   0.47891   0.66764   0.00000  Uiso   1.00
O1743  O     0.23876   0.52089   0.79581   0.00000  Uiso   1.00
O1744  O     0.24149   0.52031   0.54035   0.00000  Uiso   1.00
O1745  O     0.24133   0.81119   0.16326   0.00000  Uiso   1.00
O1746  O     0.24057   0.85849   0.28772   0.00000  Uiso   1.00
O1747  O     0.24533   0.80929   0.41397   0.00000  Uiso   1.00
O1748  O     0.24251   0.85602   0.03836   0.00000  Uiso   1.00
O1749  O     0.24614   0.81085   0.91456   0.00000  Uiso   1.00
O1750  O     0.23767   0.85541   0.78902   0.00000  Uiso   1.00
O1751  O     0.23305   0.85647   0.53724   0.00000  Uiso   1.00
O1752  O     0.24128   0.81194   0.66145   0.00000  Uiso   1.00
O1753  O     0.49170   0.02331   0.17357   0.00000  Uiso   1.00
O1754  O     0.49118   0.01970   0.42773   0.00000  Uiso   1.00
O1755  O     0.49015   0.02593   0.67045   0.00000  Uiso   1.00
O1756  O     0.49600   0.02774   0.92430   0.00000  Uiso   1.00
O1757  O     0.48928   0.31175   0.04885   0.00000  Uiso   1.00
O1758  O     0.48387   0.31396   0.29669   0.00000  Uiso   1.00
O1759  O     0.49406   0.35634   0.17413   0.00000  Uiso   1.00
O1760  O     0.48957   0.35653   0.42101   0.00000  Uiso   1.00
O1761  O     0.49449   0.35383   0.67085   0.00000  Uiso   1.00
O1762  O     0.49700   0.35697   0.92198   0.00000  Uiso   1.00
O1763  O     0.49014   0.31321   0.79651   0.00000  Uiso   1.00
O1764  O     0.48198   0.30992   0.54751   0.00000  Uiso   1.00
O1765  O     0.49069   0.68925   0.41630   0.00000  Uiso   1.00
O1766  O     0.49445   0.69107   0.16571   0.00000  Uiso   1.00
O1767  O     0.48756   0.64639   0.29168   0.00000  Uiso   1.00
O1768  O     0.48917   0.64507   0.04146   0.00000  Uiso   1.00
O1769  O     0.48685   0.64861   0.79194   0.00000  Uiso   1.00
O1770  O     0.48574   0.64567   0.54511   0.00000  Uiso   1.00
O1771  O     0.48922   0.69404   0.66350   0.00000  Uiso   1.00
O1772  O     0.49134   0.68977   0.91684   0.00000  Uiso   1.00
O1773  O     0.48762   0.97964   0.30079   0.00000  Uiso   1.00
O1774  O     0.49130   0.98005   0.04749   0.00000  Uiso   1.00
O1775  O     0.49148   0.98232   0.79905   0.00000  Uiso   1.00
O1776  O     0.48687   0.97877   0.55359   0.00000  Uiso   1.00
O1777  O     0.74169   0.14505   0.17603   0.00000  Uiso   1.00
O1778  O     0.73719   0.18943   0.29986   0.00000  Uiso   1.00
O1779  O     0.73893   0.18699   0.04932   0.00000  Uiso   1.00
O1780  O     0.74136   0.14204   0.42355   0.00000  Uiso   1.00
O1781  O     0.74257   0.14126   0.67759   0.00000  Uiso   1.00
O1782  O     0.73950   0.18751   0.80153   0.00000  Uiso   1.00
O1783  O     0.73673   0.18501   0.54847   0.00000  Uiso   1.00
O1784  O     0.74086   0.14400   0.92380   0.00000  Uiso   1.00
O1785  O     0.74981   0.47487   0.16638   0.00000  Uiso   1.00
O1786  O     0.73898   0.47537   0.41913   0.00000  Uiso   1.00
O1787  O     0.73770   0.51761   0.29416   0.00000  Uiso   1.00
O1788  O     0.73802   0.52099   0.04568   0.00000  Uiso   1.00
O1789  O     0.74047   0.52001   0.54611   0.00000  Uiso   1.00
O1790  O     0.74350   0.47603   0.92078   0.00000  Uiso   1.00
O1791  O     0.74345   0.47500   0.66839   0.00000  Uiso   1.00
O1792  O     0.74136   0.52015   0.79313   0.00000  Uiso   1.00
O1793  O     0.73647   0.85330   0.04748   0.00000  Uiso   1.00
O1794  O     0.74059   0.85397   0.29879   0.00000  Uiso   1.00
O1795  O     0.73749   0.81101   0.42686   0.00000  Uiso   1.00
O1796  O     0.74365   0.80944   0.17170   0.00000  Uiso   1.00
O1797  O     0.73829   0.85665   0.55012   0.00000  Uiso   1.00
O1798  O     0.74330   0.80970   0.67086   0.00000  Uiso   1.00
O1799  O     0.73937   0.85596   0.79764   0.00000  Uiso   1.00
O1800  O     0.74059   0.81038   0.92182   0.00000  Uiso   1.00
O1801  O     0.99197   0.02602   0.17161   0.00000  Uiso   1.00
O1802  O     0.99392   0.02355   0.42417   0.00000  Uiso   1.00
O1803  O     0.99555   0.02238   0.91953   0.00000  Uiso   1.00
O1804  O     0.99212   0.02123   0.67169   0.00000  Uiso   1.00
O1805  O     0.98778   0.30756   0.30017   0.00000  Uiso   1.00
O1806  O     0.99121   0.30912   0.04539   0.00000  Uiso   1.00
O1807  O     0.98841   0.35547   0.41856   0.00000  Uiso   1.00
O1808  O     0.99395   0.35207   0.17418   0.00000  Uiso   1.00
O1809  O     0.98690   0.31033   0.54707   0.00000  Uiso   1.00
O1810  O     0.99533   0.35652   0.92096   0.00000  Uiso   1.00
O1811  O     0.99281   0.35646   0.67132   0.00000  Uiso   1.00
O1812  O     0.98859   0.31114   0.79533   0.00000  Uiso   1.00
O1813  O     0.99348   0.69045   0.42519   0.00000  Uiso   1.00
O1814  O     0.98640   0.64374   0.29792   0.00000  Uiso   1.00
O1815  O     0.98753   0.64640   0.04854   0.00000  Uiso   1.00
O1816  O     0.98897   0.68975   0.17425   0.00000  Uiso   1.00
O1817  O     0.98930   0.64579   0.79889   0.00000  Uiso   1.00
O1818  O     0.99355   0.69138   0.91992   0.00000  Uiso   1.00
O1819  O     0.99097   0.68927   0.67328   0.00000  Uiso   1.00
O1820  O     0.98619   0.64359   0.54941   0.00000  Uiso   1.00
O1821  O     0.98839   0.97976   0.29741   0.00000  Uiso   1.00
O1822  O     0.98689   0.98023   0.04667   0.00000  Uiso   1.00
O1823  O     0.98932   0.97623   0.79721   0.00000  Uiso   1.00
O1824  O     0.98446   0.97676   0.54762   0.00000  Uiso   1.00
