data_final_Cl-Cu-SABVOH01
_audit_creation_date              2022-12-15
_audit_creation_method            'Materials Studio'
_symmetry_space_group_name_H-M    'P1'
_symmetry_Int_Tables_number       1
_symmetry_cell_setting            triclinic
loop_
_symmetry_equiv_pos_as_xyz
  x,y,z
_cell_length_a                    34.4984
_cell_length_b                    37.2836
_cell_length_c                    26.6939
_cell_angle_alpha                 90.0000
_cell_angle_beta                  90.0000
_cell_angle_gamma                 90.0000
loop_
_atom_site_label
_atom_site_type_symbol
_atom_site_fract_x
_atom_site_fract_y
_atom_site_fract_z
_atom_site_U_iso_or_equiv
_atom_site_adp_type
_atom_site_occupancy
Cu1    Cu    0.23418   0.17221   0.02471   0.00000  Uiso   1.00
Cu2    Cu    0.23757   0.17100   0.15082   0.00000  Uiso   1.00
Cu3    Cu    0.23658   0.17428   0.27515   0.00000  Uiso   1.00
Cu4    Cu    0.23690   0.17213   0.39953   0.00000  Uiso   1.00
Cu5    Cu    0.23422   0.17003   0.52489   0.00000  Uiso   1.00
Cu6    Cu    0.23435   0.16767   0.64869   0.00000  Uiso   1.00
Cu7    Cu    0.23410   0.17030   0.77385   0.00000  Uiso   1.00
Cu8    Cu    0.23445   0.17395   0.89964   0.00000  Uiso   1.00
Cu9    Cu    0.23693   0.50770   0.02482   0.00000  Uiso   1.00
Cu10   Cu    0.23852   0.50437   0.15022   0.00000  Uiso   1.00
Cu11   Cu    0.23639   0.50326   0.27305   0.00000  Uiso   1.00
Cu12   Cu    0.23682   0.50461   0.39863   0.00000  Uiso   1.00
Cu13   Cu    0.23586   0.50423   0.52570   0.00000  Uiso   1.00
Cu14   Cu    0.23403   0.50451   0.64914   0.00000  Uiso   1.00
Cu15   Cu    0.23705   0.50402   0.77563   0.00000  Uiso   1.00
Cu16   Cu    0.23875   0.50234   0.90046   0.00000  Uiso   1.00
Cu17   Cu    0.23493   0.83813   0.03232   0.00000  Uiso   1.00
Cu18   Cu    0.23988   0.84186   0.15697   0.00000  Uiso   1.00
Cu19   Cu    0.23714   0.84397   0.28113   0.00000  Uiso   1.00
Cu20   Cu    0.23743   0.83779   0.40456   0.00000  Uiso   1.00
Cu21   Cu    0.24140   0.84144   0.52861   0.00000  Uiso   1.00
Cu22   Cu    0.23809   0.84366   0.65081   0.00000  Uiso   1.00
Cu23   Cu    0.23453   0.83879   0.77778   0.00000  Uiso   1.00
Cu24   Cu    0.23594   0.84154   0.90419   0.00000  Uiso   1.00
Cu25   Cu    0.48513   0.00756   0.40137   0.00000  Uiso   1.00
Cu26   Cu    0.48680   0.01010   0.02838   0.00000  Uiso   1.00
Cu27   Cu    0.48811   0.00796   0.15327   0.00000  Uiso   1.00
Cu28   Cu    0.48752   0.00473   0.27805   0.00000  Uiso   1.00
Cu29   Cu    0.48747   0.00935   0.90064   0.00000  Uiso   1.00
Cu30   Cu    0.48635   0.00692   0.52600   0.00000  Uiso   1.00
Cu31   Cu    0.48992   0.00889   0.64879   0.00000  Uiso   1.00
Cu32   Cu    0.48731   0.00265   0.77739   0.00000  Uiso   1.00
Cu33   Cu    0.48724   0.34026   0.02510   0.00000  Uiso   1.00
Cu34   Cu    0.48484   0.33662   0.14795   0.00000  Uiso   1.00
Cu35   Cu    0.48801   0.33718   0.27150   0.00000  Uiso   1.00
Cu36   Cu    0.48796   0.33900   0.39738   0.00000  Uiso   1.00
Cu37   Cu    0.48398   0.33880   0.52420   0.00000  Uiso   1.00
Cu38   Cu    0.48301   0.34135   0.64694   0.00000  Uiso   1.00
Cu39   Cu    0.48281   0.34064   0.77243   0.00000  Uiso   1.00
Cu40   Cu    0.48581   0.34014   0.89738   0.00000  Uiso   1.00
Cu41   Cu    0.48454   0.67379   0.03097   0.00000  Uiso   1.00
Cu42   Cu    0.48497   0.67352   0.15693   0.00000  Uiso   1.00
Cu43   Cu    0.48410   0.67006   0.28176   0.00000  Uiso   1.00
Cu44   Cu    0.48497   0.67128   0.40388   0.00000  Uiso   1.00
Cu45   Cu    0.48227   0.66859   0.53043   0.00000  Uiso   1.00
Cu46   Cu    0.48598   0.67089   0.65718   0.00000  Uiso   1.00
Cu47   Cu    0.48274   0.67282   0.78108   0.00000  Uiso   1.00
Cu48   Cu    0.48227   0.67235   0.90435   0.00000  Uiso   1.00
Cu49   Cu    0.73586   0.17332   0.02422   0.00000  Uiso   1.00
Cu50   Cu    0.73961   0.17357   0.14702   0.00000  Uiso   1.00
Cu51   Cu    0.73978   0.17328   0.27143   0.00000  Uiso   1.00
Cu52   Cu    0.73459   0.17368   0.39782   0.00000  Uiso   1.00
Cu53   Cu    0.73575   0.17889   0.52245   0.00000  Uiso   1.00
Cu54   Cu    0.73606   0.17669   0.64902   0.00000  Uiso   1.00
Cu55   Cu    0.73792   0.17281   0.77513   0.00000  Uiso   1.00
Cu56   Cu    0.73688   0.17378   0.90282   0.00000  Uiso   1.00
Cu57   Cu    0.73842   0.50691   0.02906   0.00000  Uiso   1.00
Cu58   Cu    0.73435   0.50288   0.15669   0.00000  Uiso   1.00
Cu59   Cu    0.73927   0.50311   0.27886   0.00000  Uiso   1.00
Cu60   Cu    0.73781   0.50792   0.40555   0.00000  Uiso   1.00
Cu61   Cu    0.73768   0.50569   0.53092   0.00000  Uiso   1.00
Cu62   Cu    0.73152   0.50855   0.65412   0.00000  Uiso   1.00
Cu63   Cu    0.72949   0.50734   0.77883   0.00000  Uiso   1.00
Cu64   Cu    0.73532   0.50526   0.90428   0.00000  Uiso   1.00
Cu65   Cu    0.73734   0.83895   0.02790   0.00000  Uiso   1.00
Cu66   Cu    0.73835   0.84018   0.15080   0.00000  Uiso   1.00
Cu67   Cu    0.73759   0.83915   0.27190   0.00000  Uiso   1.00
Cu68   Cu    0.73737   0.83958   0.39571   0.00000  Uiso   1.00
Cu69   Cu    0.73709   0.83457   0.51992   0.00000  Uiso   1.00
Cu70   Cu    0.73685   0.83760   0.64913   0.00000  Uiso   1.00
Cu71   Cu    0.73760   0.83570   0.77567   0.00000  Uiso   1.00
Cu72   Cu    0.73696   0.83589   0.90349   0.00000  Uiso   1.00
Cu73   Cu    0.98403   0.00767   0.40189   0.00000  Uiso   1.00
Cu74   Cu    0.98920   0.01121   0.27657   0.00000  Uiso   1.00
Cu75   Cu    0.98791   0.00705   0.02714   0.00000  Uiso   1.00
Cu76   Cu    0.98985   0.01068   0.15099   0.00000  Uiso   1.00
Cu77   Cu    0.98353   0.00609   0.52313   0.00000  Uiso   1.00
Cu78   Cu    0.98310   0.00495   0.77816   0.00000  Uiso   1.00
Cu79   Cu    0.98286   0.00286   0.65260   0.00000  Uiso   1.00
Cu80   Cu    0.98416   0.00672   0.90309   0.00000  Uiso   1.00
Cu81   Cu    0.98888   0.33998   0.03512   0.00000  Uiso   1.00
Cu82   Cu    0.98667   0.33988   0.15724   0.00000  Uiso   1.00
Cu83   Cu    0.98890   0.34029   0.28477   0.00000  Uiso   1.00
Cu84   Cu    0.98788   0.33716   0.40823   0.00000  Uiso   1.00
Cu85   Cu    0.98572   0.34137   0.53238   0.00000  Uiso   1.00
Cu86   Cu    0.98473   0.34296   0.65630   0.00000  Uiso   1.00
Cu87   Cu    0.98406   0.34428   0.78195   0.00000  Uiso   1.00
Cu88   Cu    0.98865   0.33997   0.90809   0.00000  Uiso   1.00
Cu89   Cu    0.98833   0.66697   0.02980   0.00000  Uiso   1.00
Cu90   Cu    0.98659   0.67271   0.15529   0.00000  Uiso   1.00
Cu91   Cu    0.98852   0.67656   0.27831   0.00000  Uiso   1.00
Cu92   Cu    0.98852   0.67352   0.40375   0.00000  Uiso   1.00
Cu93   Cu    0.98500   0.67210   0.52899   0.00000  Uiso   1.00
Cu94   Cu    0.98978   0.67028   0.65273   0.00000  Uiso   1.00
Cu95   Cu    0.98814   0.66801   0.77880   0.00000  Uiso   1.00
Cu96   Cu    0.98516   0.66827   0.90359   0.00000  Uiso   1.00
Cl97   Cl    0.17054   0.07280   0.04926   0.00000  Uiso   1.00
Cl98   Cl    0.05600   0.10971   0.13833   0.00000  Uiso   1.00
Cl99   Cl    0.18298   0.06969   0.30268   0.00000  Uiso   1.00
Cl100  Cl    0.05056   0.11415   0.39273   0.00000  Uiso   1.00
Cl101  Cl    0.11442   0.19234   0.01922   0.00000  Uiso   1.00
Cl102  Cl    0.06498   0.08995   0.61251   0.00000  Uiso   1.00
Cl103  Cl    0.17414   0.06110   0.79864   0.00000  Uiso   1.00
Cl104  Cl    0.05224   0.09800   0.87299   0.00000  Uiso   1.00
Cl105  Cl    0.18552   0.05622   0.52997   0.00000  Uiso   1.00
Cl106  Cl    0.11666   0.19890   0.50188   0.00000  Uiso   1.00
Cl107  Cl    0.11138   0.31609   0.17905   0.00000  Uiso   1.00
Cl108  Cl    0.05301   0.24152   0.25862   0.00000  Uiso   1.00
Cl109  Cl    0.17517   0.27837   0.42926   0.00000  Uiso   1.00
Cl110  Cl    0.18334   0.39180   0.29414   0.00000  Uiso   1.00
Cl111  Cl    0.10258   0.30686   0.68625   0.00000  Uiso   1.00
Cl112  Cl    0.09156   0.38342   0.57328   0.00000  Uiso   1.00
Cl113  Cl    0.04637   0.24459   0.76050   0.00000  Uiso   1.00
Cl114  Cl    0.18851   0.28824   0.90013   0.00000  Uiso   1.00
Cl115  Cl    0.18458   0.38689   0.77440   0.00000  Uiso   1.00
Cl116  Cl    0.17324   0.40619   0.06510   0.00000  Uiso   1.00
Cl117  Cl    0.05474   0.44277   0.13787   0.00000  Uiso   1.00
Cl118  Cl    0.07087   0.58483   0.19114   0.00000  Uiso   1.00
Cl119  Cl    0.13053   0.46023   0.36569   0.00000  Uiso   1.00
Cl120  Cl    0.05973   0.57909   0.42884   0.00000  Uiso   1.00
Cl121  Cl    0.03835   0.45057   0.65406   0.00000  Uiso   1.00
Cl122  Cl    0.05242   0.57506   0.66962   0.00000  Uiso   1.00
Cl123  Cl    0.06935   0.41778   0.86722   0.00000  Uiso   1.00
Cl124  Cl    0.05611   0.56709   0.93041   0.00000  Uiso   1.00
Cl125  Cl    0.05881   0.76925   0.12291   0.00000  Uiso   1.00
Cl126  Cl    0.18167   0.61922   0.26222   0.00000  Uiso   1.00
Cl127  Cl    0.16685   0.74929   0.31103   0.00000  Uiso   1.00
Cl128  Cl    0.18928   0.72327   0.02220   0.00000  Uiso   1.00
Cl129  Cl    0.05237   0.77197   0.40182   0.00000  Uiso   1.00
Cl130  Cl    0.10274   0.70696   0.81761   0.00000  Uiso   1.00
Cl131  Cl    0.04750   0.77247   0.89040   0.00000  Uiso   1.00
Cl132  Cl    0.18901   0.72885   0.54941   0.00000  Uiso   1.00
Cl133  Cl    0.17282   0.60449   0.75298   0.00000  Uiso   1.00
Cl134  Cl    0.13785   0.78964   0.61601   0.00000  Uiso   1.00
Cl135  Cl    0.17702   0.61403   0.50691   0.00000  Uiso   1.00
Cl136  Cl    0.16798   0.60583   0.99695   0.00000  Uiso   1.00
Cl137  Cl    0.18311   0.95407   0.26946   0.00000  Uiso   1.00
Cl138  Cl    0.13720   0.88537   0.18900   0.00000  Uiso   1.00
Cl139  Cl    0.05496   0.91397   0.42818   0.00000  Uiso   1.00
Cl140  Cl    0.16754   0.93847   0.49331   0.00000  Uiso   1.00
Cl141  Cl    0.17761   0.95259   0.75547   0.00000  Uiso   1.00
Cl142  Cl    0.05342   0.89922   0.91200   0.00000  Uiso   1.00
Cl143  Cl    0.05683   0.91393   0.67892   0.00000  Uiso   1.00
Cl144  Cl    0.10107   0.96395   0.98332   0.00000  Uiso   1.00
Cl145  Cl    0.30271   0.07066   0.29626   0.00000  Uiso   1.00
Cl146  Cl    0.30828   0.08371   0.05219   0.00000  Uiso   1.00
Cl147  Cl    0.43249   0.11873   0.14002   0.00000  Uiso   1.00
Cl148  Cl    0.43045   0.11988   0.38126   0.00000  Uiso   1.00
Cl149  Cl    0.42715   0.12086   0.88333   0.00000  Uiso   1.00
Cl150  Cl    0.35900   0.15363   0.63637   0.00000  Uiso   1.00
Cl151  Cl    0.37323   0.03131   0.79961   0.00000  Uiso   1.00
Cl152  Cl    0.30673   0.07627   0.54675   0.00000  Uiso   1.00
Cl153  Cl    0.30502   0.27172   0.16885   0.00000  Uiso   1.00
Cl154  Cl    0.32254   0.24868   0.44054   0.00000  Uiso   1.00
Cl155  Cl    0.42122   0.24406   0.24041   0.00000  Uiso   1.00
Cl156  Cl    0.37553   0.36901   0.29581   0.00000  Uiso   1.00
Cl157  Cl    0.42693   0.22933   0.00475   0.00000  Uiso   1.00
Cl158  Cl    0.29637   0.26580   0.66492   0.00000  Uiso   1.00
Cl159  Cl    0.41858   0.24154   0.74336   0.00000  Uiso   1.00
Cl160  Cl    0.42692   0.23400   0.50530   0.00000  Uiso   1.00
Cl161  Cl    0.31041   0.26519   0.92785   0.00000  Uiso   1.00
Cl162  Cl    0.37222   0.50295   0.15231   0.00000  Uiso   1.00
Cl163  Cl    0.43319   0.55677   0.27064   0.00000  Uiso   1.00
Cl164  Cl    0.42720   0.44452   0.37497   0.00000  Uiso   1.00
Cl165  Cl    0.35317   0.53788   0.49602   0.00000  Uiso   1.00
Cl166  Cl    0.30790   0.41410   0.04607   0.00000  Uiso   1.00
Cl167  Cl    0.42434   0.44681   0.61704   0.00000  Uiso   1.00
Cl168  Cl    0.43222   0.56643   0.76006   0.00000  Uiso   1.00
Cl169  Cl    0.43675   0.45175   0.88499   0.00000  Uiso   1.00
Cl170  Cl    0.30358   0.40899   0.55271   0.00000  Uiso   1.00
Cl171  Cl    0.31389   0.41836   0.80296   0.00000  Uiso   1.00
Cl172  Cl    0.42511   0.57043   0.99876   0.00000  Uiso   1.00
Cl173  Cl    0.37084   0.70615   0.30799   0.00000  Uiso   1.00
Cl174  Cl    0.29316   0.61548   0.39424   0.00000  Uiso   1.00
Cl175  Cl    0.38905   0.72607   0.06902   0.00000  Uiso   1.00
Cl176  Cl    0.43062   0.77530   0.37939   0.00000  Uiso   1.00
Cl177  Cl    0.30294   0.60684   0.17167   0.00000  Uiso   1.00
Cl178  Cl    0.37853   0.62939   0.69251   0.00000  Uiso   1.00
Cl179  Cl    0.36919   0.70223   0.79762   0.00000  Uiso   1.00
Cl180  Cl    0.30676   0.74099   0.54858   0.00000  Uiso   1.00
Cl181  Cl    0.29963   0.60258   0.91822   0.00000  Uiso   1.00
Cl182  Cl    0.31648   0.92802   0.43839   0.00000  Uiso   1.00
Cl183  Cl    0.37568   0.96989   0.18271   0.00000  Uiso   1.00
Cl184  Cl    0.42380   0.90375   0.24754   0.00000  Uiso   1.00
Cl185  Cl    0.35537   0.81852   0.13820   0.00000  Uiso   1.00
Cl186  Cl    0.29602   0.95234   0.66791   0.00000  Uiso   1.00
Cl187  Cl    0.42316   0.90207   0.75430   0.00000  Uiso   1.00
Cl188  Cl    0.30590   0.93380   0.92728   0.00000  Uiso   1.00
Cl189  Cl    0.35522   0.81583   0.62161   0.00000  Uiso   1.00
Cl190  Cl    0.35147   0.80922   0.87008   0.00000  Uiso   1.00
Cl191  Cl    0.43100   0.89607   0.52239   0.00000  Uiso   1.00
Cl192  Cl    0.36009   0.86350   0.99905   0.00000  Uiso   1.00
Cl193  Cl    0.61886   0.02099   0.29121   0.00000  Uiso   1.00
Cl194  Cl    0.67900   0.06527   0.04774   0.00000  Uiso   1.00
Cl195  Cl    0.62874   0.14368   0.13126   0.00000  Uiso   1.00
Cl196  Cl    0.56182   0.09189   0.36922   0.00000  Uiso   1.00
Cl197  Cl    0.55878   0.10067   0.62658   0.00000  Uiso   1.00
Cl198  Cl    0.68142   0.06818   0.79873   0.00000  Uiso   1.00
Cl199  Cl    0.55593   0.11170   0.88460   0.00000  Uiso   1.00
Cl200  Cl    0.67715   0.07324   0.55146   0.00000  Uiso   1.00
Cl201  Cl    0.61274   0.31547   0.41691   0.00000  Uiso   1.00
Cl202  Cl    0.67681   0.27839   0.17910   0.00000  Uiso   1.00
Cl203  Cl    0.62573   0.20323   0.24174   0.00000  Uiso   1.00
Cl204  Cl    0.67710   0.39693   0.30346   0.00000  Uiso   1.00
Cl205  Cl    0.57002   0.26219   0.73614   0.00000  Uiso   1.00
Cl206  Cl    0.67562   0.28954   0.66513   0.00000  Uiso   1.00
Cl207  Cl    0.67281   0.27454   0.92944   0.00000  Uiso   1.00
Cl208  Cl    0.54922   0.24034   0.51255   0.00000  Uiso   1.00
Cl209  Cl    0.67226   0.39865   0.79578   0.00000  Uiso   1.00
Cl210  Cl    0.55908   0.24735   0.99939   0.00000  Uiso   1.00
Cl211  Cl    0.55993   0.43157   0.12569   0.00000  Uiso   1.00
Cl212  Cl    0.57145   0.41979   0.36773   0.00000  Uiso   1.00
Cl213  Cl    0.67622   0.40324   0.05523   0.00000  Uiso   1.00
Cl214  Cl    0.55278   0.57111   0.26007   0.00000  Uiso   1.00
Cl215  Cl    0.63332   0.55300   0.48975   0.00000  Uiso   1.00
Cl216  Cl    0.55521   0.57408   0.76354   0.00000  Uiso   1.00
Cl217  Cl    0.56689   0.42269   0.86560   0.00000  Uiso   1.00
Cl218  Cl    0.55081   0.43422   0.62332   0.00000  Uiso   1.00
Cl219  Cl    0.63606   0.55054   0.99648   0.00000  Uiso   1.00
Cl220  Cl    0.66972   0.40968   0.56880   0.00000  Uiso   1.00
Cl221  Cl    0.60002   0.63481   0.19686   0.00000  Uiso   1.00
Cl222  Cl    0.68348   0.62057   0.41422   0.00000  Uiso   1.00
Cl223  Cl    0.67501   0.73479   0.06266   0.00000  Uiso   1.00
Cl224  Cl    0.59895   0.70069   0.30259   0.00000  Uiso   1.00
Cl225  Cl    0.62578   0.79269   0.36501   0.00000  Uiso   1.00
Cl226  Cl    0.56755   0.75177   0.87164   0.00000  Uiso   1.00
Cl227  Cl    0.54749   0.77435   0.64171   0.00000  Uiso   1.00
Cl228  Cl    0.67821   0.73004   0.79292   0.00000  Uiso   1.00
Cl229  Cl    0.59928   0.63642   0.69189   0.00000  Uiso   1.00
Cl230  Cl    0.61120   0.70399   0.56209   0.00000  Uiso   1.00
Cl231  Cl    0.68031   0.62701   0.92090   0.00000  Uiso   1.00
Cl232  Cl    0.61918   0.85661   0.26126   0.00000  Uiso   1.00
Cl233  Cl    0.66774   0.93884   0.18786   0.00000  Uiso   1.00
Cl234  Cl    0.63410   0.88054   0.48698   0.00000  Uiso   1.00
Cl235  Cl    0.60984   0.98588   0.41481   0.00000  Uiso   1.00
Cl236  Cl    0.62962   0.80160   0.12179   0.00000  Uiso   1.00
Cl237  Cl    0.55761   0.91220   0.00367   0.00000  Uiso   1.00
Cl238  Cl    0.62557   0.86871   0.75759   0.00000  Uiso   1.00
Cl239  Cl    0.60927   0.98354   0.93178   0.00000  Uiso   1.00
Cl240  Cl    0.60270   0.97782   0.68096   0.00000  Uiso   1.00
Cl241  Cl    0.92743   0.11225   0.04812   0.00000  Uiso   1.00
Cl242  Cl    0.81798   0.08685   0.11689   0.00000  Uiso   1.00
Cl243  Cl    0.93193   0.11831   0.29803   0.00000  Uiso   1.00
Cl244  Cl    0.81201   0.09165   0.36503   0.00000  Uiso   1.00
Cl245  Cl    0.79982   0.07343   0.63682   0.00000  Uiso   1.00
Cl246  Cl    0.91863   0.10723   0.55599   0.00000  Uiso   1.00
Cl247  Cl    0.79982   0.07253   0.88669   0.00000  Uiso   1.00
Cl248  Cl    0.93472   0.12757   0.77895   0.00000  Uiso   1.00
Cl249  Cl    0.81452   0.25791   0.43814   0.00000  Uiso   1.00
Cl250  Cl    0.91295   0.25641   0.23944   0.00000  Uiso   1.00
Cl251  Cl    0.80099   0.27246   0.15879   0.00000  Uiso   1.00
Cl252  Cl    0.93735   0.23046   0.01461   0.00000  Uiso   1.00
Cl253  Cl    0.91760   0.24277   0.74265   0.00000  Uiso   1.00
Cl254  Cl    0.81287   0.26459   0.68654   0.00000  Uiso   1.00
Cl255  Cl    0.82152   0.25542   0.94604   0.00000  Uiso   1.00
Cl256  Cl    0.92581   0.23834   0.50472   0.00000  Uiso   1.00
Cl257  Cl    0.92903   0.44607   0.30847   0.00000  Uiso   1.00
Cl258  Cl    0.93210   0.56822   0.25389   0.00000  Uiso   1.00
Cl259  Cl    0.92837   0.44412   0.05213   0.00000  Uiso   1.00
Cl260  Cl    0.91852   0.56951   0.00409   0.00000  Uiso   1.00
Cl261  Cl    0.81795   0.41712   0.12497   0.00000  Uiso   1.00
Cl262  Cl    0.80879   0.41147   0.39678   0.00000  Uiso   1.00
Cl263  Cl    0.81142   0.59805   0.19092   0.00000  Uiso   1.00
Cl264  Cl    0.81337   0.59841   0.42779   0.00000  Uiso   1.00
Cl265  Cl    0.93657   0.45292   0.54731   0.00000  Uiso   1.00
Cl266  Cl    0.92249   0.56540   0.75144   0.00000  Uiso   1.00
Cl267  Cl    0.81749   0.42956   0.61759   0.00000  Uiso   1.00
Cl268  Cl    0.91822   0.44551   0.81157   0.00000  Uiso   1.00
Cl269  Cl    0.81298   0.41953   0.87041   0.00000  Uiso   1.00
Cl270  Cl    0.92315   0.56835   0.50287   0.00000  Uiso   1.00
Cl271  Cl    0.81147   0.58693   0.93761   0.00000  Uiso   1.00
Cl272  Cl    0.81394   0.59961   0.68942   0.00000  Uiso   1.00
Cl273  Cl    0.80507   0.73237   0.38300   0.00000  Uiso   1.00
Cl274  Cl    0.92870   0.78453   0.30025   0.00000  Uiso   1.00
Cl275  Cl    0.92621   0.77326   0.05552   0.00000  Uiso   1.00
Cl276  Cl    0.81376   0.74931   0.12069   0.00000  Uiso   1.00
Cl277  Cl    0.92941   0.78526   0.54336   0.00000  Uiso   1.00
Cl278  Cl    0.81613   0.75706   0.61387   0.00000  Uiso   1.00
Cl279  Cl    0.80273   0.74241   0.88592   0.00000  Uiso   1.00
Cl280  Cl    0.91396   0.75188   0.81258   0.00000  Uiso   1.00
Cl281  Cl    0.86268   0.85421   0.40210   0.00000  Uiso   1.00
Cl282  Cl    0.87131   0.99030   0.26544   0.00000  Uiso   1.00
Cl283  Cl    0.91753   0.91673   0.19311   0.00000  Uiso   1.00
Cl284  Cl    0.88231   0.95831   0.48372   0.00000  Uiso   1.00
Cl285  Cl    0.85725   0.85935   0.67648   0.00000  Uiso   1.00
Cl286  Cl    0.80565   0.92139   0.75080   0.00000  Uiso   1.00
Cl287  Cl    0.92290   0.90344   0.93360   0.00000  Uiso   1.00
Cl288  Cl    0.81228   0.93331   0.99730   0.00000  Uiso   1.00
H289   H     0.12813   0.12952   0.39962   0.00000  Uiso   1.00
H290   H     0.13661   0.12374   0.14449   0.00000  Uiso   1.00
H291   H     0.10609   0.03850   0.28056   0.00000  Uiso   1.00
H292   H     0.09911   0.04351   0.02846   0.00000  Uiso   1.00
H293   H     0.24225   0.12815   0.09002   0.00000  Uiso   1.00
H294   H     0.23420   0.12621   0.33669   0.00000  Uiso   1.00
H295   H     0.13565   0.11130   0.63386   0.00000  Uiso   1.00
H296   H     0.09723   0.04342   0.78329   0.00000  Uiso   1.00
H297   H     0.12522   0.13099   0.89446   0.00000  Uiso   1.00
H298   H     0.10866   0.03132   0.52183   0.00000  Uiso   1.00
H299   H     0.24033   0.12329   0.58640   0.00000  Uiso   1.00
H300   H     0.24333   0.12813   0.84116   0.00000  Uiso   1.00
H301   H     0.10621   0.37089   0.28107   0.00000  Uiso   1.00
H302   H     0.13307   0.22571   0.26886   0.00000  Uiso   1.00
H303   H     0.16673   0.26421   0.16337   0.00000  Uiso   1.00
H304   H     0.24471   0.21532   0.21328   0.00000  Uiso   1.00
H305   H     0.09609   0.29535   0.42158   0.00000  Uiso   1.00
H306   H     0.23722   0.21626   0.46265   0.00000  Uiso   1.00
H307   H     0.06322   0.25091   0.03045   0.00000  Uiso   1.00
H308   H     0.10085   0.38176   0.04612   0.00000  Uiso   1.00
H309   H     0.00283   0.38283   0.34454   0.00000  Uiso   1.00
H310   H     0.05886   0.25109   0.52936   0.00000  Uiso   1.00
H311   H     0.16928   0.26849   0.64751   0.00000  Uiso   1.00
H312   H     0.11384   0.32070   0.88647   0.00000  Uiso   1.00
H313   H     0.24132   0.21715   0.71167   0.00000  Uiso   1.00
H314   H     0.12146   0.21678   0.77389   0.00000  Uiso   1.00
H315   H     0.10356   0.36484   0.76740   0.00000  Uiso   1.00
H316   H     0.24249   0.21955   0.95947   0.00000  Uiso   1.00
H317   H     0.07073   0.41283   0.38745   0.00000  Uiso   1.00
H318   H     0.24597   0.54802   0.21357   0.00000  Uiso   1.00
H319   H     0.13229   0.45801   0.14527   0.00000  Uiso   1.00
H320   H     0.14016   0.55658   0.16534   0.00000  Uiso   1.00
H321   H     0.24468   0.46016   0.33264   0.00000  Uiso   1.00
H322   H     0.12360   0.54393   0.39902   0.00000  Uiso   1.00
H323   H     0.24879   0.45772   0.08221   0.00000  Uiso   1.00
H324   H     0.24591   0.54491   0.45989   0.00000  Uiso   1.00
H325   H     0.24439   0.46062   0.59018   0.00000  Uiso   1.00
H326   H     0.12846   0.54851   0.65516   0.00000  Uiso   1.00
H327   H     0.13194   0.54948   0.91646   0.00000  Uiso   1.00
H328   H     0.15816   0.41813   0.53783   0.00000  Uiso   1.00
H329   H     0.14768   0.43510   0.88753   0.00000  Uiso   1.00
H330   H     0.24206   0.45805   0.83551   0.00000  Uiso   1.00
H331   H     0.11880   0.47721   0.66953   0.00000  Uiso   1.00
H332   H     0.24005   0.55012   0.71322   0.00000  Uiso   1.00
H333   H     0.24213   0.54687   0.95879   0.00000  Uiso   1.00
H334   H     0.09759   0.63360   0.02337   0.00000  Uiso   1.00
H335   H     0.10753   0.64361   0.27876   0.00000  Uiso   1.00
H336   H     0.11327   0.69464   0.01524   0.00000  Uiso   1.00
H337   H     0.09617   0.71736   0.28791   0.00000  Uiso   1.00
H338   H     0.13313   0.79436   0.14150   0.00000  Uiso   1.00
H339   H     0.12904   0.79714   0.41107   0.00000  Uiso   1.00
H340   H     0.23916   0.79227   0.34129   0.00000  Uiso   1.00
H341   H     0.24615   0.79918   0.09837   0.00000  Uiso   1.00
H342   H     0.00038   0.63122   0.21425   0.00000  Uiso   1.00
H343   H     0.10138   0.63793   0.52514   0.00000  Uiso   1.00
H344   H     0.11117   0.70531   0.53927   0.00000  Uiso   1.00
H345   H     0.16458   0.75139   0.79211   0.00000  Uiso   1.00
H346   H     0.07575   0.74633   0.64316   0.00000  Uiso   1.00
H347   H     0.10180   0.63340   0.77536   0.00000  Uiso   1.00
H348   H     0.24289   0.79331   0.84140   0.00000  Uiso   1.00
H349   H     0.00551   0.62940   0.71433   0.00000  Uiso   1.00
H350   H     0.07799   0.92972   0.16425   0.00000  Uiso   1.00
H351   H     0.16568   0.92899   0.01786   0.00000  Uiso   1.00
H352   H     0.10447   0.97487   0.27809   0.00000  Uiso   1.00
H353   H     0.12847   0.88422   0.41097   0.00000  Uiso   1.00
H354   H     0.24765   0.88207   0.46798   0.00000  Uiso   1.00
H355   H     0.00066   0.96610   0.21686   0.00000  Uiso   1.00
H356   H     0.24182   0.88391   0.71783   0.00000  Uiso   1.00
H357   H     0.09062   0.95878   0.51515   0.00000  Uiso   1.00
H358   H     0.13046   0.88890   0.65974   0.00000  Uiso   1.00
H359   H     0.09837   0.97735   0.77764   0.00000  Uiso   1.00
H360   H     0.12626   0.87895   0.89321   0.00000  Uiso   1.00
H361   H     0.11509   0.80785   0.91462   0.00000  Uiso   1.00
H362   H     0.23342   0.88961   0.96760   0.00000  Uiso   1.00
H363   H     0.49696   0.05271   0.09626   0.00000  Uiso   1.00
H364   H     0.38640   0.05585   0.03521   0.00000  Uiso   1.00
H365   H     0.37805   0.04488   0.27659   0.00000  Uiso   1.00
H366   H     0.35750   0.14833   0.16178   0.00000  Uiso   1.00
H367   H     0.34841   0.13964   0.39117   0.00000  Uiso   1.00
H368   H     0.48885   0.05276   0.33954   0.00000  Uiso   1.00
H369   H     0.41655   0.10363   0.65334   0.00000  Uiso   1.00
H370   H     0.31245   0.07896   0.77936   0.00000  Uiso   1.00
H371   H     0.35312   0.13879   0.89772   0.00000  Uiso   1.00
H372   H     0.38305   0.05704   0.53256   0.00000  Uiso   1.00
H373   H     0.49511   0.05200   0.83163   0.00000  Uiso   1.00
H374   H     0.49315   0.05269   0.58566   0.00000  Uiso   1.00
H375   H     0.34893   0.21259   0.26124   0.00000  Uiso   1.00
H376   H     0.38055   0.29232   0.14995   0.00000  Uiso   1.00
H377   H     0.49563   0.38147   0.08637   0.00000  Uiso   1.00
H378   H     0.39428   0.27770   0.41319   0.00000  Uiso   1.00
H379   H     0.37734   0.38186   0.01986   0.00000  Uiso   1.00
H380   H     0.49666   0.38287   0.33618   0.00000  Uiso   1.00
H381   H     0.49665   0.29374   0.45930   0.00000  Uiso   1.00
H382   H     0.35098   0.20817   0.01569   0.00000  Uiso   1.00
H383   H     0.49108   0.29244   0.21529   0.00000  Uiso   1.00
H384   H     0.36793   0.29948   0.64458   0.00000  Uiso   1.00
H385   H     0.37935   0.29041   0.90738   0.00000  Uiso   1.00
H386   H     0.48413   0.38397   0.59110   0.00000  Uiso   1.00
H387   H     0.38186   0.38332   0.52712   0.00000  Uiso   1.00
H388   H     0.47744   0.29381   0.71092   0.00000  Uiso   1.00
H389   H     0.49173   0.29724   0.95969   0.00000  Uiso   1.00
H390   H     0.34768   0.21108   0.76784   0.00000  Uiso   1.00
H391   H     0.49535   0.38656   0.83241   0.00000  Uiso   1.00
H392   H     0.35492   0.20302   0.52250   0.00000  Uiso   1.00
H393   H     0.42916   0.45008   0.17106   0.00000  Uiso   1.00
H394   H     0.34797   0.54567   0.01485   0.00000  Uiso   1.00
H395   H     0.35517   0.53031   0.28102   0.00000  Uiso   1.00
H396   H     0.35043   0.46992   0.39687   0.00000  Uiso   1.00
H397   H     0.31426   0.41826   0.27415   0.00000  Uiso   1.00
H398   H     0.36664   0.48355   0.90160   0.00000  Uiso   1.00
H399   H     0.35658   0.53623   0.77347   0.00000  Uiso   1.00
H400   H     0.31854   0.58529   0.66234   0.00000  Uiso   1.00
H401   H     0.35131   0.47241   0.64076   0.00000  Uiso   1.00
H402   H     0.41677   0.57152   0.52813   0.00000  Uiso   1.00
H403   H     0.38878   0.40056   0.78584   0.00000  Uiso   1.00
H404   H     0.32540   0.75999   0.03999   0.00000  Uiso   1.00
H405   H     0.38032   0.62731   0.16049   0.00000  Uiso   1.00
H406   H     0.42158   0.77655   0.16774   0.00000  Uiso   1.00
H407   H     0.31275   0.75580   0.28683   0.00000  Uiso   1.00
H408   H     0.37372   0.63862   0.38591   0.00000  Uiso   1.00
H409   H     0.48572   0.71898   0.09261   0.00000  Uiso   1.00
H410   H     0.49589   0.71585   0.34229   0.00000  Uiso   1.00
H411   H     0.49607   0.62304   0.21707   0.00000  Uiso   1.00
H412   H     0.48627   0.62647   0.46793   0.00000  Uiso   1.00
H413   H     0.35678   0.79945   0.39559   0.00000  Uiso   1.00
H414   H     0.41221   0.76669   0.64607   0.00000  Uiso   1.00
H415   H     0.31574   0.75546   0.78457   0.00000  Uiso   1.00
H416   H     0.41314   0.76876   0.89882   0.00000  Uiso   1.00
H417   H     0.48423   0.71599   0.59129   0.00000  Uiso   1.00
H418   H     0.37208   0.63023   0.90352   0.00000  Uiso   1.00
H419   H     0.38514   0.72233   0.54153   0.00000  Uiso   1.00
H420   H     0.49497   0.71985   0.83567   0.00000  Uiso   1.00
H421   H     0.49379   0.62874   0.71952   0.00000  Uiso   1.00
H422   H     0.25451   0.79912   0.58969   0.00000  Uiso   1.00
H423   H     0.48199   0.62943   0.96750   0.00000  Uiso   1.00
H424   H     0.41095   0.92211   0.01642   0.00000  Uiso   1.00
H425   H     0.25303   0.88486   0.21976   0.00000  Uiso   1.00
H426   H     0.31699   0.91868   0.15568   0.00000  Uiso   1.00
H427   H     0.39087   0.95273   0.41475   0.00000  Uiso   1.00
H428   H     0.34795   0.88314   0.26620   0.00000  Uiso   1.00
H429   H     0.47936   0.96036   0.46824   0.00000  Uiso   1.00
H430   H     0.49950   0.96383   0.21513   0.00000  Uiso   1.00
H431   H     0.37465   0.97803   0.64991   0.00000  Uiso   1.00
H432   H     0.35123   0.88038   0.53265   0.00000  Uiso   1.00
H433   H     0.38125   0.95246   0.91856   0.00000  Uiso   1.00
H434   H     0.35079   0.87531   0.76827   0.00000  Uiso   1.00
H435   H     0.49351   0.96662   0.96593   0.00000  Uiso   1.00
H436   H     0.74513   0.12684   0.33801   0.00000  Uiso   1.00
H437   H     0.67753   0.06669   0.26377   0.00000  Uiso   1.00
H438   H     0.56179   0.09791   0.16147   0.00000  Uiso   1.00
H439   H     0.63210   0.12717   0.39201   0.00000  Uiso   1.00
H440   H     0.60208   0.04562   0.03029   0.00000  Uiso   1.00
H441   H     0.74113   0.12981   0.08576   0.00000  Uiso   1.00
H442   H     0.74534   0.13129   0.58588   0.00000  Uiso   1.00
H443   H     0.62888   0.12675   0.64546   0.00000  Uiso   1.00
H444   H     0.60403   0.04038   0.78254   0.00000  Uiso   1.00
H445   H     0.63279   0.13529   0.90544   0.00000  Uiso   1.00
H446   H     0.59883   0.04426   0.53347   0.00000  Uiso   1.00
H447   H     0.74410   0.12740   0.83913   0.00000  Uiso   1.00
H448   H     0.59878   0.37741   0.03878   0.00000  Uiso   1.00
H449   H     0.74197   0.22098   0.46032   0.00000  Uiso   1.00
H450   H     0.59852   0.29948   0.16216   0.00000  Uiso   1.00
H451   H     0.63250   0.22172   0.02029   0.00000  Uiso   1.00
H452   H     0.60707   0.36102   0.27282   0.00000  Uiso   1.00
H453   H     0.56384   0.25006   0.26837   0.00000  Uiso   1.00
H454   H     0.66490   0.26505   0.39820   0.00000  Uiso   1.00
H455   H     0.60232   0.31375   0.65071   0.00000  Uiso   1.00
H456   H     0.59184   0.38680   0.54292   0.00000  Uiso   1.00
H457   H     0.62446   0.21334   0.52766   0.00000  Uiso   1.00
H458   H     0.59674   0.29533   0.91164   0.00000  Uiso   1.00
H459   H     0.64170   0.23154   0.76279   0.00000  Uiso   1.00
H460   H     0.60146   0.36992   0.76919   0.00000  Uiso   1.00
H461   H     0.73070   0.21880   0.97244   0.00000  Uiso   1.00
H462   H     0.74257   0.22237   0.71553   0.00000  Uiso   1.00
H463   H     0.63079   0.45871   0.14813   0.00000  Uiso   1.00
H464   H     0.73775   0.55004   0.21332   0.00000  Uiso   1.00
H465   H     0.64665   0.44080   0.39140   0.00000  Uiso   1.00
H466   H     0.62411   0.54107   0.28523   0.00000  Uiso   1.00
H467   H     0.66189   0.59056   0.16719   0.00000  Uiso   1.00
H468   H     0.57324   0.59849   0.01947   0.00000  Uiso   1.00
H469   H     0.74050   0.45844   0.34337   0.00000  Uiso   1.00
H470   H     0.74320   0.46273   0.08892   0.00000  Uiso   1.00
H471   H     0.62092   0.46768   0.65094   0.00000  Uiso   1.00
H472   H     0.63349   0.55063   0.78485   0.00000  Uiso   1.00
H473   H     0.73277   0.46068   0.59928   0.00000  Uiso   1.00
H474   H     0.63295   0.45767   0.89527   0.00000  Uiso   1.00
H475   H     0.72768   0.55709   0.71730   0.00000  Uiso   1.00
H476   H     0.56849   0.58961   0.52128   0.00000  Uiso   1.00
H477   H     0.73406   0.46197   0.84128   0.00000  Uiso   1.00
H478   H     0.56719   0.75088   0.39463   0.00000  Uiso   1.00
H479   H     0.56112   0.76693   0.15285   0.00000  Uiso   1.00
H480   H     0.59876   0.70407   0.03528   0.00000  Uiso   1.00
H481   H     0.60346   0.63947   0.40347   0.00000  Uiso   1.00
H482   H     0.66552   0.74179   0.27622   0.00000  Uiso   1.00
H483   H     0.74129   0.79103   0.33300   0.00000  Uiso   1.00
H484   H     0.63694   0.78251   0.89514   0.00000  Uiso   1.00
H485   H     0.67010   0.74005   0.52340   0.00000  Uiso   1.00
H486   H     0.60421   0.70505   0.78021   0.00000  Uiso   1.00
H487   H     0.60675   0.64684   0.91009   0.00000  Uiso   1.00
H488   H     0.66235   0.60023   0.65879   0.00000  Uiso   1.00
H489   H     0.73670   0.78893   0.84453   0.00000  Uiso   1.00
H490   H     0.74064   0.78943   0.58595   0.00000  Uiso   1.00
H491   H     0.62789   0.79397   0.64604   0.00000  Uiso   1.00
H492   H     0.60034   0.97375   0.15578   0.00000  Uiso   1.00
H493   H     0.55818   0.90625   0.28839   0.00000  Uiso   1.00
H494   H     0.66520   0.93171   0.40215   0.00000  Uiso   1.00
H495   H     0.63704   0.89867   0.01461   0.00000  Uiso   1.00
H496   H     0.74353   0.88467   0.21492   0.00000  Uiso   1.00
H497   H     0.74695   0.88326   0.45859   0.00000  Uiso   1.00
H498   H     0.65619   0.92569   0.65925   0.00000  Uiso   1.00
H499   H     0.57636   0.93338   0.50626   0.00000  Uiso   1.00
H500   H     0.57347   0.91881   0.77616   0.00000  Uiso   1.00
H501   H     0.67235   0.93618   0.90330   0.00000  Uiso   1.00
H502   H     0.50685   0.96167   0.71348   0.00000  Uiso   1.00
H503   H     0.74469   0.87940   0.71048   0.00000  Uiso   1.00
H504   H     0.74017   0.88278   0.96151   0.00000  Uiso   1.00
H505   H     0.85251   0.13566   0.03606   0.00000  Uiso   1.00
H506   H     0.89595   0.07010   0.13492   0.00000  Uiso   1.00
H507   H     0.85368   0.14443   0.27797   0.00000  Uiso   1.00
H508   H     0.88398   0.06063   0.39027   0.00000  Uiso   1.00
H509   H     0.99176   0.05490   0.34686   0.00000  Uiso   1.00
H510   H     0.99899   0.05201   0.08778   0.00000  Uiso   1.00
H511   H     0.87295   0.04542   0.65626   0.00000  Uiso   1.00
H512   H     0.87381   0.04227   0.90646   0.00000  Uiso   1.00
H513   H     0.85619   0.14977   0.76620   0.00000  Uiso   1.00
H514   H     0.84641   0.13676   0.53338   0.00000  Uiso   1.00
H515   H     0.98994   0.05014   0.58899   0.00000  Uiso   1.00
H516   H     0.98341   0.05416   0.83859   0.00000  Uiso   1.00
H517   H     0.84619   0.21615   0.26599   0.00000  Uiso   1.00
H518   H     0.87577   0.29844   0.14916   0.00000  Uiso   1.00
H519   H     0.88079   0.28878   0.41763   0.00000  Uiso   1.00
H520   H     0.89157   0.39436   0.14691   0.00000  Uiso   1.00
H521   H     0.86004   0.20251   0.02004   0.00000  Uiso   1.00
H522   H     0.75495   0.21595   0.20767   0.00000  Uiso   1.00
H523   H     0.88521   0.39001   0.40587   0.00000  Uiso   1.00
H524   H     0.99012   0.29598   0.46944   0.00000  Uiso   1.00
H525   H     0.99264   0.38718   0.09851   0.00000  Uiso   1.00
H526   H     0.99356   0.29493   0.22319   0.00000  Uiso   1.00
H527   H     0.99247   0.29786   0.71875   0.00000  Uiso   1.00
H528   H     0.84912   0.21876   0.52037   0.00000  Uiso   1.00
H529   H     0.88742   0.39051   0.89377   0.00000  Uiso   1.00
H530   H     0.88534   0.28821   0.66835   0.00000  Uiso   1.00
H531   H     0.89529   0.27790   0.92179   0.00000  Uiso   1.00
H532   H     0.98875   0.39210   0.84778   0.00000  Uiso   1.00
H533   H     0.84617   0.21709   0.76815   0.00000  Uiso   1.00
H534   H     0.98743   0.38500   0.59036   0.00000  Uiso   1.00
H535   H     0.99629   0.29484   0.97337   0.00000  Uiso   1.00
H536   H     0.87863   0.38982   0.65038   0.00000  Uiso   1.00
H537   H     0.85483   0.54362   0.27058   0.00000  Uiso   1.00
H538   H     0.85377   0.47527   0.03374   0.00000  Uiso   1.00
H539   H     0.85491   0.47008   0.29063   0.00000  Uiso   1.00
H540   H     0.83975   0.54946   0.02515   0.00000  Uiso   1.00
H541   H     0.75464   0.54886   0.46523   0.00000  Uiso   1.00
H542   H     0.86545   0.48545   0.52936   0.00000  Uiso   1.00
H543   H     0.84458   0.47222   0.78731   0.00000  Uiso   1.00
H544   H     0.84742   0.54031   0.77038   0.00000  Uiso   1.00
H545   H     0.84819   0.54395   0.52751   0.00000  Uiso   1.00
H546   H     0.75199   0.54339   0.96396   0.00000  Uiso   1.00
H547   H     0.75184   0.79595   0.08871   0.00000  Uiso   1.00
H548   H     0.88481   0.71941   0.15112   0.00000  Uiso   1.00
H549   H     0.88480   0.71065   0.40061   0.00000  Uiso   1.00
H550   H     0.88012   0.62906   0.16030   0.00000  Uiso   1.00
H551   H     0.88235   0.63032   0.40598   0.00000  Uiso   1.00
H552   H     0.99845   0.71653   0.34259   0.00000  Uiso   1.00
H553   H     0.99125   0.62758   0.46639   0.00000  Uiso   1.00
H554   H     0.99095   0.71638   0.08766   0.00000  Uiso   1.00
H555   H     0.88654   0.62129   0.66758   0.00000  Uiso   1.00
H556   H     0.88108   0.61767   0.91231   0.00000  Uiso   1.00
H557   H     0.88598   0.72685   0.63408   0.00000  Uiso   1.00
H558   H     0.98806   0.71314   0.83330   0.00000  Uiso   1.00
H559   H     0.87908   0.70798   0.90583   0.00000  Uiso   1.00
H560   H     0.99188   0.62135   0.96380   0.00000  Uiso   1.00
H561   H     0.83815   0.77471   0.79611   0.00000  Uiso   1.00
H562   H     0.99413   0.71574   0.58893   0.00000  Uiso   1.00
H563   H     0.88533   0.95633   0.01756   0.00000  Uiso   1.00
H564   H     0.98148   0.95832   0.46471   0.00000  Uiso   1.00
H565   H     0.85193   0.88074   0.16193   0.00000  Uiso   1.00
H566   H     0.92320   0.90116   0.38476   0.00000  Uiso   1.00
H567   H     0.81359   0.93633   0.27558   0.00000  Uiso   1.00
H568   H     0.85542   0.80526   0.03168   0.00000  Uiso   1.00
H569   H     0.85629   0.80855   0.28023   0.00000  Uiso   1.00
H570   H     0.91344   0.91250   0.65670   0.00000  Uiso   1.00
H571   H     0.98377   0.95619   0.96239   0.00000  Uiso   1.00
H572   H     0.88367   0.94667   0.76888   0.00000  Uiso   1.00
H573   H     0.85128   0.87154   0.91055   0.00000  Uiso   1.00
H574   H     0.82550   0.90759   0.50849   0.00000  Uiso   1.00
H575   H     0.98530   0.95825   0.71816   0.00000  Uiso   1.00
H576   H     0.85332   0.80504   0.52766   0.00000  Uiso   1.00
C577   C     0.09247   0.09218   0.17678   0.00000  Uiso   1.00
C578   C     0.12903   0.10685   0.17462   0.00000  Uiso   1.00
C579   C     0.04784   0.04824   0.21804   0.00000  Uiso   1.00
C580   C     0.08548   0.06713   0.21607   0.00000  Uiso   1.00
C581   C     0.19131   0.12417   0.21537   0.00000  Uiso   1.00
C582   C     0.15588   0.10129   0.21379   0.00000  Uiso   1.00
C583   C     0.11337   0.05924   0.25374   0.00000  Uiso   1.00
C584   C     0.14804   0.07687   0.25399   0.00000  Uiso   1.00
C585   C     0.08585   0.09503   0.43122   0.00000  Uiso   1.00
C586   C     0.04454   0.04467   0.46318   0.00000  Uiso   1.00
C587   C     0.07993   0.06612   0.46387   0.00000  Uiso   1.00
C588   C     0.18727   0.12187   0.46158   0.00000  Uiso   1.00
C589   C     0.15341   0.09890   0.45873   0.00000  Uiso   1.00
C590   C     0.12298   0.11016   0.42807   0.00000  Uiso   1.00
C591   C     0.14791   0.07121   0.49274   0.00000  Uiso   1.00
C592   C     0.11069   0.05285   0.49460   0.00000  Uiso   1.00
C593   C     0.09320   0.08172   0.66775   0.00000  Uiso   1.00
C594   C     0.12936   0.09701   0.66822   0.00000  Uiso   1.00
C595   C     0.04364   0.04030   0.71020   0.00000  Uiso   1.00
C596   C     0.08055   0.06169   0.70855   0.00000  Uiso   1.00
C597   C     0.18791   0.11908   0.71184   0.00000  Uiso   1.00
C598   C     0.15401   0.09491   0.71076   0.00000  Uiso   1.00
C599   C     0.10650   0.05633   0.75023   0.00000  Uiso   1.00
C600   C     0.14294   0.07274   0.74806   0.00000  Uiso   1.00
C601   C     0.08627   0.09162   0.92260   0.00000  Uiso   1.00
C602   C     0.11923   0.11240   0.92330   0.00000  Uiso   1.00
C603   C     0.04281   0.04550   0.96106   0.00000  Uiso   1.00
C604   C     0.07768   0.06798   0.96137   0.00000  Uiso   1.00
C605   C     0.18136   0.12962   0.96116   0.00000  Uiso   1.00
C606   C     0.14641   0.10646   0.96153   0.00000  Uiso   1.00
C607   C     0.10524   0.06317   0.99884   0.00000  Uiso   1.00
C608   C     0.13921   0.08145   0.99920   0.00000  Uiso   1.00
C609   C     0.11649   0.23012   0.05905   0.00000  Uiso   1.00
C610   C     0.08336   0.25235   0.05987   0.00000  Uiso   1.00
C611   C     0.18383   0.21609   0.09095   0.00000  Uiso   1.00
C612   C     0.14732   0.23626   0.09289   0.00000  Uiso   1.00
C613   C     0.04400   0.30027   0.09707   0.00000  Uiso   1.00
C614   C     0.07867   0.27700   0.09764   0.00000  Uiso   1.00
C615   C     0.14399   0.26153   0.13247   0.00000  Uiso   1.00
C616   C     0.10972   0.28167   0.13338   0.00000  Uiso   1.00
C617   C     0.04558   0.37883   0.21847   0.00000  Uiso   1.00
C618   C     0.14076   0.26471   0.38492   0.00000  Uiso   1.00
C619   C     0.10313   0.27734   0.38861   0.00000  Uiso   1.00
C620   C     0.18909   0.22450   0.33905   0.00000  Uiso   1.00
C621   C     0.15146   0.24464   0.34136   0.00000  Uiso   1.00
C622   C     0.04119   0.29366   0.35152   0.00000  Uiso   1.00
C623   C     0.07739   0.27255   0.35027   0.00000  Uiso   1.00
C624   C     0.12544   0.24050   0.30150   0.00000  Uiso   1.00
C625   C     0.08793   0.25371   0.30550   0.00000  Uiso   1.00
C626   C     0.04365   0.37672   0.46888   0.00000  Uiso   1.00
C627   C     0.10840   0.39361   0.01095   0.00000  Uiso   1.00
C628   C     0.11096   0.39068   0.25279   0.00000  Uiso   1.00
C629   C     0.08111   0.39943   0.21647   0.00000  Uiso   1.00
C630   C     0.07884   0.39697   0.46735   0.00000  Uiso   1.00
C631   C     0.10366   0.39959   0.51071   0.00000  Uiso   1.00
C632   C     0.11536   0.23170   0.55377   0.00000  Uiso   1.00
C633   C     0.08205   0.25305   0.55715   0.00000  Uiso   1.00
C634   C     0.18149   0.21354   0.58524   0.00000  Uiso   1.00
C635   C     0.14671   0.23650   0.58678   0.00000  Uiso   1.00
C636   C     0.03939   0.30001   0.59742   0.00000  Uiso   1.00
C637   C     0.07636   0.27848   0.59568   0.00000  Uiso   1.00
C638   C     0.14289   0.26558   0.62289   0.00000  Uiso   1.00
C639   C     0.10749   0.28346   0.63037   0.00000  Uiso   1.00
C640   C     0.04209   0.38168   0.71735   0.00000  Uiso   1.00
C641   C     0.14921   0.27553   0.86195   0.00000  Uiso   1.00
C642   C     0.11509   0.29535   0.86673   0.00000  Uiso   1.00
C643   C     0.18474   0.22071   0.83191   0.00000  Uiso   1.00
C644   C     0.15030   0.24476   0.83090   0.00000  Uiso   1.00
C645   C     0.04495   0.30539   0.84180   0.00000  Uiso   1.00
C646   C     0.08172   0.28406   0.83794   0.00000  Uiso   1.00
C647   C     0.11952   0.23734   0.80014   0.00000  Uiso   1.00
C648   C     0.08451   0.25519   0.80328   0.00000  Uiso   1.00
C649   C     0.04611   0.37864   0.97046   0.00000  Uiso   1.00
C650   C     0.10882   0.38900   0.74368   0.00000  Uiso   1.00
C651   C     0.08312   0.39719   0.96807   0.00000  Uiso   1.00
C652   C     0.08935   0.42579   0.17934   0.00000  Uiso   1.00
C653   C     0.12952   0.57208   0.13316   0.00000  Uiso   1.00
C654   C     0.19030   0.55435   0.08926   0.00000  Uiso   1.00
C655   C     0.15390   0.57514   0.09031   0.00000  Uiso   1.00
C656   C     0.08961   0.41508   0.42285   0.00000  Uiso   1.00
C657   C     0.12626   0.44056   0.17581   0.00000  Uiso   1.00
C658   C     0.19243   0.45338   0.21043   0.00000  Uiso   1.00
C659   C     0.15588   0.43127   0.20921   0.00000  Uiso   1.00
C660   C     0.12036   0.56517   0.36994   0.00000  Uiso   1.00
C661   C     0.18829   0.55292   0.33723   0.00000  Uiso   1.00
C662   C     0.15253   0.57560   0.33873   0.00000  Uiso   1.00
C663   C     0.14744   0.40604   0.24858   0.00000  Uiso   1.00
C664   C     0.12472   0.43467   0.42078   0.00000  Uiso   1.00
C665   C     0.18551   0.45650   0.46117   0.00000  Uiso   1.00
C666   C     0.14996   0.43324   0.46220   0.00000  Uiso   1.00
C667   C     0.08892   0.58884   0.37629   0.00000  Uiso   1.00
C668   C     0.09695   0.59278   0.13820   0.00000  Uiso   1.00
C669   C     0.14045   0.59621   0.05001   0.00000  Uiso   1.00
C670   C     0.14466   0.40949   0.01033   0.00000  Uiso   1.00
C671   C     0.07643   0.40224   0.71823   0.00000  Uiso   1.00
C672   C     0.13565   0.42611   0.92268   0.00000  Uiso   1.00
C673   C     0.11525   0.45339   0.69177   0.00000  Uiso   1.00
C674   C     0.14555   0.40530   0.73952   0.00000  Uiso   1.00
C675   C     0.07826   0.43527   0.69251   0.00000  Uiso   1.00
C676   C     0.18832   0.55402   0.58829   0.00000  Uiso   1.00
C677   C     0.15208   0.57558   0.58915   0.00000  Uiso   1.00
C678   C     0.12377   0.56778   0.62676   0.00000  Uiso   1.00
C679   C     0.18339   0.45858   0.71405   0.00000  Uiso   1.00
C680   C     0.14721   0.43909   0.71741   0.00000  Uiso   1.00
C681   C     0.12538   0.56706   0.88468   0.00000  Uiso   1.00
C682   C     0.09674   0.41349   0.92348   0.00000  Uiso   1.00
C683   C     0.18787   0.55002   0.84013   0.00000  Uiso   1.00
C684   C     0.15293   0.57325   0.84470   0.00000  Uiso   1.00
C685   C     0.08962   0.58251   0.88425   0.00000  Uiso   1.00
C686   C     0.19025   0.45344   0.96845   0.00000  Uiso   1.00
C687   C     0.15817   0.42595   0.96661   0.00000  Uiso   1.00
C688   C     0.08814   0.58643   0.62738   0.00000  Uiso   1.00
C689   C     0.13976   0.41537   0.50592   0.00000  Uiso   1.00
C690   C     0.14130   0.59718   0.80586   0.00000  Uiso   1.00
C691   C     0.11244   0.62363   0.30570   0.00000  Uiso   1.00
C692   C     0.18842   0.79189   0.46952   0.00000  Uiso   1.00
C693   C     0.12375   0.77808   0.44103   0.00000  Uiso   1.00
C694   C     0.04652   0.63038   0.09744   0.00000  Uiso   1.00
C695   C     0.13816   0.75449   0.25559   0.00000  Uiso   1.00
C696   C     0.08592   0.61914   0.34433   0.00000  Uiso   1.00
C697   C     0.08871   0.76035   0.17230   0.00000  Uiso   1.00
C698   C     0.12398   0.77878   0.17337   0.00000  Uiso   1.00
C699   C     0.04372   0.71586   0.21392   0.00000  Uiso   1.00
C700   C     0.07920   0.73661   0.21281   0.00000  Uiso   1.00
C701   C     0.14901   0.77605   0.21474   0.00000  Uiso   1.00
C702   C     0.05004   0.64099   0.34156   0.00000  Uiso   1.00
C703   C     0.10289   0.73521   0.25464   0.00000  Uiso   1.00
C704   C     0.08885   0.75856   0.44273   0.00000  Uiso   1.00
C705   C     0.10471   0.61291   0.05262   0.00000  Uiso   1.00
C706   C     0.04812   0.70879   0.47057   0.00000  Uiso   1.00
C707   C     0.08384   0.73090   0.47597   0.00000  Uiso   1.00
C708   C     0.15328   0.77115   0.47463   0.00000  Uiso   1.00
C709   C     0.08194   0.61007   0.09600   0.00000  Uiso   1.00
C710   C     0.14590   0.60403   0.30487   0.00000  Uiso   1.00
C711   C     0.18365   0.79964   0.21619   0.00000  Uiso   1.00
C712   C     0.10657   0.61733   0.55133   0.00000  Uiso   1.00
C713   C     0.07904   0.61107   0.59010   0.00000  Uiso   1.00
C714   C     0.11584   0.78216   0.93533   0.00000  Uiso   1.00
C715   C     0.07948   0.60823   0.84449   0.00000  Uiso   1.00
C716   C     0.04511   0.63336   0.58761   0.00000  Uiso   1.00
C717   C     0.12712   0.76789   0.67486   0.00000  Uiso   1.00
C718   C     0.11223   0.72977   0.76073   0.00000  Uiso   1.00
C719   C     0.14661   0.74787   0.75820   0.00000  Uiso   1.00
C720   C     0.04763   0.70813   0.72159   0.00000  Uiso   1.00
C721   C     0.08517   0.72844   0.72079   0.00000  Uiso   1.00
C722   C     0.15355   0.76756   0.71434   0.00000  Uiso   1.00
C723   C     0.04208   0.62693   0.84348   0.00000  Uiso   1.00
C724   C     0.18244   0.79609   0.96712   0.00000  Uiso   1.00
C725   C     0.09404   0.74818   0.67711   0.00000  Uiso   1.00
C726   C     0.08477   0.75917   0.93161   0.00000  Uiso   1.00
C727   C     0.10570   0.61328   0.80459   0.00000  Uiso   1.00
C728   C     0.04680   0.70599   0.96402   0.00000  Uiso   1.00
C729   C     0.08283   0.72782   0.96053   0.00000  Uiso   1.00
C730   C     0.14838   0.77175   0.96445   0.00000  Uiso   1.00
C731   C     0.11378   0.72480   0.51079   0.00000  Uiso   1.00
C732   C     0.18593   0.79353   0.71583   0.00000  Uiso   1.00
C733   C     0.14280   0.60004   0.55239   0.00000  Uiso   1.00
C734   C     0.14916   0.74398   0.51139   0.00000  Uiso   1.00
C735   C     0.11261   0.71889   0.99193   0.00000  Uiso   1.00
C736   C     0.14522   0.73953   0.99374   0.00000  Uiso   1.00
C737   C     0.13171   0.91319   0.13575   0.00000  Uiso   1.00
C738   C     0.09538   0.92908   0.13107   0.00000  Uiso   1.00
C739   C     0.18995   0.88722   0.09401   0.00000  Uiso   1.00
C740   C     0.15642   0.91167   0.09502   0.00000  Uiso   1.00
C741   C     0.04812   0.96998   0.08882   0.00000  Uiso   1.00
C742   C     0.08489   0.94685   0.08720   0.00000  Uiso   1.00
C743   C     0.14644   0.92990   0.05033   0.00000  Uiso   1.00
C744   C     0.10993   0.94660   0.04447   0.00000  Uiso   1.00
C745   C     0.14526   0.93898   0.30931   0.00000  Uiso   1.00
C746   C     0.10802   0.95444   0.30673   0.00000  Uiso   1.00
C747   C     0.18848   0.88974   0.34425   0.00000  Uiso   1.00
C748   C     0.15308   0.91182   0.34591   0.00000  Uiso   1.00
C749   C     0.04307   0.96906   0.34008   0.00000  Uiso   1.00
C750   C     0.08024   0.94907   0.34329   0.00000  Uiso   1.00
C751   C     0.12514   0.90492   0.38182   0.00000  Uiso   1.00
C752   C     0.08836   0.92134   0.37836   0.00000  Uiso   1.00
C753   C     0.13607   0.92617   0.54089   0.00000  Uiso   1.00
C754   C     0.09954   0.94141   0.54322   0.00000  Uiso   1.00
C755   C     0.18370   0.88388   0.58725   0.00000  Uiso   1.00
C756   C     0.14770   0.90450   0.58365   0.00000  Uiso   1.00
C757   C     0.03927   0.96348   0.58756   0.00000  Uiso   1.00
C758   C     0.07459   0.94001   0.58637   0.00000  Uiso   1.00
C759   C     0.12354   0.90274   0.62704   0.00000  Uiso   1.00
C760   C     0.08793   0.91937   0.62753   0.00000  Uiso   1.00
C761   C     0.14226   0.93988   0.80102   0.00000  Uiso   1.00
C762   C     0.10601   0.95573   0.80134   0.00000  Uiso   1.00
C763   C     0.18848   0.89045   0.83708   0.00000  Uiso   1.00
C764   C     0.15091   0.91203   0.83607   0.00000  Uiso   1.00
C765   C     0.04206   0.96670   0.83996   0.00000  Uiso   1.00
C766   C     0.07827   0.94589   0.83788   0.00000  Uiso   1.00
C767   C     0.12171   0.90156   0.86959   0.00000  Uiso   1.00
C768   C     0.08484   0.91723   0.87012   0.00000  Uiso   1.00
C769   C     0.35675   0.12144   0.42290   0.00000  Uiso   1.00
C770   C     0.37760   0.07555   0.00547   0.00000  Uiso   1.00
C771   C     0.33697   0.08541   0.25007   0.00000  Uiso   1.00
C772   C     0.37279   0.06624   0.24990   0.00000  Uiso   1.00
C773   C     0.29512   0.13347   0.21638   0.00000  Uiso   1.00
C774   C     0.33160   0.11517   0.21839   0.00000  Uiso   1.00
C775   C     0.43699   0.05327   0.21179   0.00000  Uiso   1.00
C776   C     0.40126   0.07596   0.21410   0.00000  Uiso   1.00
C777   C     0.39390   0.10398   0.42196   0.00000  Uiso   1.00
C778   C     0.29334   0.13258   0.46363   0.00000  Uiso   1.00
C779   C     0.33069   0.11488   0.46386   0.00000  Uiso   1.00
C780   C     0.43666   0.05612   0.45924   0.00000  Uiso   1.00
C781   C     0.40222   0.07877   0.45994   0.00000  Uiso   1.00
C782   C     0.36124   0.12529   0.18396   0.00000  Uiso   1.00
C783   C     0.39597   0.10475   0.18218   0.00000  Uiso   1.00
C784   C     0.34182   0.09314   0.00463   0.00000  Uiso   1.00
C785   C     0.35694   0.12003   0.92656   0.00000  Uiso   1.00
C786   C     0.35983   0.11880   0.68101   0.00000  Uiso   1.00
C787   C     0.39185   0.09593   0.67890   0.00000  Uiso   1.00
C788   C     0.29120   0.12887   0.70913   0.00000  Uiso   1.00
C789   C     0.32816   0.10935   0.71176   0.00000  Uiso   1.00
C790   C     0.43367   0.04776   0.71300   0.00000  Uiso   1.00
C791   C     0.39780   0.06993   0.71604   0.00000  Uiso   1.00
C792   C     0.39331   0.10397   0.92760   0.00000  Uiso   1.00
C793   C     0.29335   0.13762   0.96613   0.00000  Uiso   1.00
C794   C     0.33147   0.11601   0.96592   0.00000  Uiso   1.00
C795   C     0.44075   0.05951   0.96730   0.00000  Uiso   1.00
C796   C     0.40484   0.08122   0.96641   0.00000  Uiso   1.00
C797   C     0.33296   0.08340   0.75022   0.00000  Uiso   1.00
C798   C     0.36728   0.06374   0.75131   0.00000  Uiso   1.00
C799   C     0.34080   0.09273   0.50225   0.00000  Uiso   1.00
C800   C     0.37666   0.07532   0.50174   0.00000  Uiso   1.00
C801   C     0.37178   0.27538   0.11953   0.00000  Uiso   1.00
C802   C     0.33602   0.25832   0.11890   0.00000  Uiso   1.00
C803   C     0.39140   0.24429   0.04520   0.00000  Uiso   1.00
C804   C     0.35593   0.22571   0.04558   0.00000  Uiso   1.00
C805   C     0.43444   0.29217   0.08222   0.00000  Uiso   1.00
C806   C     0.39961   0.26998   0.08177   0.00000  Uiso   1.00
C807   C     0.32903   0.23097   0.08472   0.00000  Uiso   1.00
C808   C     0.43604   0.38561   0.21654   0.00000  Uiso   1.00
C809   C     0.38170   0.26505   0.37872   0.00000  Uiso   1.00
C810   C     0.34774   0.24729   0.38204   0.00000  Uiso   1.00
C811   C     0.39075   0.24854   0.29335   0.00000  Uiso   1.00
C812   C     0.35695   0.22761   0.29516   0.00000  Uiso   1.00
C813   C     0.43808   0.28943   0.33446   0.00000  Uiso   1.00
C814   C     0.40508   0.26596   0.33671   0.00000  Uiso   1.00
C815   C     0.33448   0.22782   0.33926   0.00000  Uiso   1.00
C816   C     0.43559   0.38431   0.45518   0.00000  Uiso   1.00
C817   C     0.29457   0.20835   0.08553   0.00000  Uiso   1.00
C818   C     0.29584   0.21210   0.33846   0.00000  Uiso   1.00
C819   C     0.29112   0.21361   0.83745   0.00000  Uiso   1.00
C820   C     0.36912   0.27560   0.62173   0.00000  Uiso   1.00
C821   C     0.33550   0.25489   0.62222   0.00000  Uiso   1.00
C822   C     0.39443   0.24047   0.55507   0.00000  Uiso   1.00
C823   C     0.35783   0.22332   0.55092   0.00000  Uiso   1.00
C824   C     0.43529   0.29087   0.58727   0.00000  Uiso   1.00
C825   C     0.40032   0.26864   0.59055   0.00000  Uiso   1.00
C826   C     0.29199   0.20797   0.58579   0.00000  Uiso   1.00
C827   C     0.32802   0.23009   0.58414   0.00000  Uiso   1.00
C828   C     0.44031   0.39398   0.71124   0.00000  Uiso   1.00
C829   C     0.37385   0.27325   0.87695   0.00000  Uiso   1.00
C830   C     0.33875   0.25478   0.87843   0.00000  Uiso   1.00
C831   C     0.39054   0.24683   0.79833   0.00000  Uiso   1.00
C832   C     0.35429   0.22954   0.79878   0.00000  Uiso   1.00
C833   C     0.43185   0.29606   0.83482   0.00000  Uiso   1.00
C834   C     0.39879   0.27023   0.83612   0.00000  Uiso   1.00
C835   C     0.32769   0.23240   0.83838   0.00000  Uiso   1.00
C836   C     0.44007   0.38824   0.96142   0.00000  Uiso   1.00
C837   C     0.35493   0.56309   0.04657   0.00000  Uiso   1.00
C838   C     0.33599   0.59464   0.12597   0.00000  Uiso   1.00
C839   C     0.38923   0.42968   0.41893   0.00000  Uiso   1.00
C840   C     0.33294   0.59704   0.36345   0.00000  Uiso   1.00
C841   C     0.39196   0.57734   0.05092   0.00000  Uiso   1.00
C842   C     0.36953   0.46220   0.18704   0.00000  Uiso   1.00
C843   C     0.40189   0.43987   0.18853   0.00000  Uiso   1.00
C844   C     0.29939   0.47261   0.21279   0.00000  Uiso   1.00
C845   C     0.33566   0.45314   0.21462   0.00000  Uiso   1.00
C846   C     0.40402   0.40981   0.21916   0.00000  Uiso   1.00
C847   C     0.29224   0.54876   0.08480   0.00000  Uiso   1.00
C848   C     0.32764   0.57003   0.08496   0.00000  Uiso   1.00
C849   C     0.39605   0.57050   0.30571   0.00000  Uiso   1.00
C850   C     0.29258   0.46342   0.45966   0.00000  Uiso   1.00
C851   C     0.32651   0.44069   0.46033   0.00000  Uiso   1.00
C852   C     0.35492   0.44762   0.42133   0.00000  Uiso   1.00
C853   C     0.33911   0.42468   0.25169   0.00000  Uiso   1.00
C854   C     0.36046   0.55189   0.30659   0.00000  Uiso   1.00
C855   C     0.39858   0.40656   0.45809   0.00000  Uiso   1.00
C856   C     0.29352   0.54303   0.33553   0.00000  Uiso   1.00
C857   C     0.33040   0.56394   0.33679   0.00000  Uiso   1.00
C858   C     0.37297   0.40098   0.49839   0.00000  Uiso   1.00
C859   C     0.37363   0.40420   0.25369   0.00000  Uiso   1.00
C860   C     0.40154   0.59923   0.34143   0.00000  Uiso   1.00
C861   C     0.33940   0.58208   0.63202   0.00000  Uiso   1.00
C862   C     0.39988   0.43993   0.92669   0.00000  Uiso   1.00
C863   C     0.40799   0.41933   0.71349   0.00000  Uiso   1.00
C864   C     0.36698   0.46018   0.92741   0.00000  Uiso   1.00
C865   C     0.34384   0.42853   0.75479   0.00000  Uiso   1.00
C866   C     0.29400   0.46716   0.70995   0.00000  Uiso   1.00
C867   C     0.33299   0.44990   0.71263   0.00000  Uiso   1.00
C868   C     0.35953   0.56050   0.55051   0.00000  Uiso   1.00
C869   C     0.39556   0.57677   0.55655   0.00000  Uiso   1.00
C870   C     0.39566   0.57758   0.80291   0.00000  Uiso   1.00
C871   C     0.29257   0.54284   0.58599   0.00000  Uiso   1.00
C872   C     0.33010   0.56262   0.58854   0.00000  Uiso   1.00
C873   C     0.33590   0.58865   0.87298   0.00000  Uiso   1.00
C874   C     0.30088   0.47488   0.96093   0.00000  Uiso   1.00
C875   C     0.33665   0.45336   0.96198   0.00000  Uiso   1.00
C876   C     0.36005   0.45812   0.67527   0.00000  Uiso   1.00
C877   C     0.35979   0.55807   0.80040   0.00000  Uiso   1.00
C878   C     0.40493   0.41148   0.95994   0.00000  Uiso   1.00
C879   C     0.29566   0.54098   0.83836   0.00000  Uiso   1.00
C880   C     0.33062   0.56208   0.83691   0.00000  Uiso   1.00
C881   C     0.39508   0.44094   0.67132   0.00000  Uiso   1.00
C882   C     0.40368   0.59674   0.60071   0.00000  Uiso   1.00
C883   C     0.38188   0.41669   0.75473   0.00000  Uiso   1.00
C884   C     0.37636   0.40447   0.99456   0.00000  Uiso   1.00
C885   C     0.33664   0.41789   0.50065   0.00000  Uiso   1.00
C886   C     0.34145   0.42427   0.99673   0.00000  Uiso   1.00
C887   C     0.37323   0.60966   0.12836   0.00000  Uiso   1.00
C888   C     0.33812   0.76190   0.26194   0.00000  Uiso   1.00
C889   C     0.36288   0.79033   0.19044   0.00000  Uiso   1.00
C890   C     0.43722   0.62307   0.09041   0.00000  Uiso   1.00
C891   C     0.36996   0.73857   0.26228   0.00000  Uiso   1.00
C892   C     0.39638   0.76945   0.19113   0.00000  Uiso   1.00
C893   C     0.33343   0.78622   0.22467   0.00000  Uiso   1.00
C894   C     0.43253   0.71750   0.22453   0.00000  Uiso   1.00
C895   C     0.40039   0.74284   0.22779   0.00000  Uiso   1.00
C896   C     0.43566   0.62161   0.33798   0.00000  Uiso   1.00
C897   C     0.39691   0.76522   0.42870   0.00000  Uiso   1.00
C898   C     0.38083   0.74646   0.01266   0.00000  Uiso   1.00
C899   C     0.33248   0.77774   0.46678   0.00000  Uiso   1.00
C900   C     0.43897   0.72046   0.46945   0.00000  Uiso   1.00
C901   C     0.40739   0.74596   0.47218   0.00000  Uiso   1.00
C902   C     0.37024   0.61349   0.36795   0.00000  Uiso   1.00
C903   C     0.36216   0.78301   0.42877   0.00000  Uiso   1.00
C904   C     0.40057   0.60302   0.09048   0.00000  Uiso   1.00
C905   C     0.34460   0.76351   0.00767   0.00000  Uiso   1.00
C906   C     0.29506   0.79894   0.46754   0.00000  Uiso   1.00
C907   C     0.37403   0.60070   0.63823   0.00000  Uiso   1.00
C908   C     0.35659   0.78389   0.92307   0.00000  Uiso   1.00
C909   C     0.34146   0.75543   0.50619   0.00000  Uiso   1.00
C910   C     0.32944   0.78166   0.71145   0.00000  Uiso   1.00
C911   C     0.33392   0.75511   0.74970   0.00000  Uiso   1.00
C912   C     0.43659   0.62141   0.59751   0.00000  Uiso   1.00
C913   C     0.39108   0.76214   0.67624   0.00000  Uiso   1.00
C914   C     0.43178   0.71803   0.71441   0.00000  Uiso   1.00
C915   C     0.39602   0.73895   0.71490   0.00000  Uiso   1.00
C916   C     0.37949   0.74023   0.51013   0.00000  Uiso   1.00
C917   C     0.43243   0.62753   0.84104   0.00000  Uiso   1.00
C918   C     0.36685   0.73270   0.75078   0.00000  Uiso   1.00
C919   C     0.39379   0.76669   0.92801   0.00000  Uiso   1.00
C920   C     0.33126   0.78134   0.96467   0.00000  Uiso   1.00
C921   C     0.43976   0.72498   0.96787   0.00000  Uiso   1.00
C922   C     0.40484   0.74570   0.97037   0.00000  Uiso   1.00
C923   C     0.35836   0.78410   0.67215   0.00000  Uiso   1.00
C924   C     0.36966   0.60893   0.87636   0.00000  Uiso   1.00
C925   C     0.39979   0.60277   0.84263   0.00000  Uiso   1.00
C926   C     0.29183   0.79862   0.96473   0.00000  Uiso   1.00
C927   C     0.39066   0.91953   0.04846   0.00000  Uiso   1.00
C928   C     0.35815   0.89755   0.04671   0.00000  Uiso   1.00
C929   C     0.37189   0.94249   0.12949   0.00000  Uiso   1.00
C930   C     0.33951   0.91995   0.12622   0.00000  Uiso   1.00
C931   C     0.43187   0.96613   0.09140   0.00000  Uiso   1.00
C932   C     0.39869   0.94116   0.09107   0.00000  Uiso   1.00
C933   C     0.29590   0.87659   0.08630   0.00000  Uiso   1.00
C934   C     0.33134   0.89836   0.08540   0.00000  Uiso   1.00
C935   C     0.38125   0.93690   0.38184   0.00000  Uiso   1.00
C936   C     0.34583   0.91919   0.38491   0.00000  Uiso   1.00
C937   C     0.39289   0.91381   0.29921   0.00000  Uiso   1.00
C938   C     0.35543   0.89695   0.30055   0.00000  Uiso   1.00
C939   C     0.43766   0.95805   0.34162   0.00000  Uiso   1.00
C940   C     0.40416   0.93499   0.34160   0.00000  Uiso   1.00
C941   C     0.29466   0.87896   0.34571   0.00000  Uiso   1.00
C942   C     0.33249   0.89965   0.34308   0.00000  Uiso   1.00
C943   C     0.29727   0.80697   0.22294   0.00000  Uiso   1.00
C944   C     0.36935   0.95435   0.62894   0.00000  Uiso   1.00
C945   C     0.33364   0.93682   0.62859   0.00000  Uiso   1.00
C946   C     0.39288   0.91407   0.55999   0.00000  Uiso   1.00
C947   C     0.35629   0.90033   0.55832   0.00000  Uiso   1.00
C948   C     0.43674   0.96222   0.59542   0.00000  Uiso   1.00
C949   C     0.39923   0.94251   0.59691   0.00000  Uiso   1.00
C950   C     0.29199   0.88833   0.59488   0.00000  Uiso   1.00
C951   C     0.32740   0.90832   0.59252   0.00000  Uiso   1.00
C952   C     0.37574   0.93708   0.88464   0.00000  Uiso   1.00
C953   C     0.33881   0.92178   0.88064   0.00000  Uiso   1.00
C954   C     0.39227   0.91006   0.80416   0.00000  Uiso   1.00
C955   C     0.35527   0.89422   0.80121   0.00000  Uiso   1.00
C956   C     0.43718   0.95770   0.84420   0.00000  Uiso   1.00
C957   C     0.40348   0.93301   0.84547   0.00000  Uiso   1.00
C958   C     0.29326   0.87707   0.83829   0.00000  Uiso   1.00
C959   C     0.32926   0.89860   0.83983   0.00000  Uiso   1.00
C960   C     0.29356   0.80284   0.71263   0.00000  Uiso   1.00
C961   C     0.61755   0.05579   0.24800   0.00000  Uiso   1.00
C962   C     0.65161   0.07614   0.24482   0.00000  Uiso   1.00
C963   C     0.55085   0.04142   0.22112   0.00000  Uiso   1.00
C964   C     0.58498   0.06473   0.21948   0.00000  Uiso   1.00
C965   C     0.68946   0.12467   0.21054   0.00000  Uiso   1.00
C966   C     0.65452   0.10354   0.21077   0.00000  Uiso   1.00
C967   C     0.58694   0.09227   0.18408   0.00000  Uiso   1.00
C968   C     0.62325   0.10998   0.17669   0.00000  Uiso   1.00
C969   C     0.59271   0.08595   0.41886   0.00000  Uiso   1.00
C970   C     0.62571   0.10843   0.42110   0.00000  Uiso   1.00
C971   C     0.54625   0.04397   0.46252   0.00000  Uiso   1.00
C972   C     0.58167   0.06561   0.46120   0.00000  Uiso   1.00
C973   C     0.68486   0.12908   0.46436   0.00000  Uiso   1.00
C974   C     0.65017   0.10495   0.46355   0.00000  Uiso   1.00
C975   C     0.64630   0.07780   0.00072   0.00000  Uiso   1.00
C976   C     0.60859   0.06394   0.00208   0.00000  Uiso   1.00
C977   C     0.58869   0.09182   0.67881   0.00000  Uiso   1.00
C978   C     0.62433   0.10949   0.67667   0.00000  Uiso   1.00
C979   C     0.54319   0.04867   0.72093   0.00000  Uiso   1.00
C980   C     0.57995   0.06998   0.72038   0.00000  Uiso   1.00
C981   C     0.68815   0.12925   0.71626   0.00000  Uiso   1.00
C982   C     0.65291   0.10578   0.71549   0.00000  Uiso   1.00
C983   C     0.60964   0.06140   0.75489   0.00000  Uiso   1.00
C984   C     0.64530   0.08002   0.75397   0.00000  Uiso   1.00
C985   C     0.58926   0.09636   0.92915   0.00000  Uiso   1.00
C986   C     0.62623   0.11302   0.93024   0.00000  Uiso   1.00
C987   C     0.54620   0.04782   0.96348   0.00000  Uiso   1.00
C988   C     0.58022   0.07002   0.96551   0.00000  Uiso   1.00
C989   C     0.69027   0.12172   0.96355   0.00000  Uiso   1.00
C990   C     0.65460   0.10133   0.96297   0.00000  Uiso   1.00
C991   C     0.60770   0.06224   0.50165   0.00000  Uiso   1.00
C992   C     0.64151   0.08126   0.50224   0.00000  Uiso   1.00
C993   C     0.60733   0.39219   0.00427   0.00000  Uiso   1.00
C994   C     0.64632   0.27047   0.12770   0.00000  Uiso   1.00
C995   C     0.60903   0.28480   0.12942   0.00000  Uiso   1.00
C996   C     0.69018   0.22256   0.08703   0.00000  Uiso   1.00
C997   C     0.65493   0.24705   0.08732   0.00000  Uiso   1.00
C998   C     0.54552   0.29987   0.08972   0.00000  Uiso   1.00
C999   C     0.58239   0.28163   0.08918   0.00000  Uiso   1.00
C1000  C     0.62771   0.24263   0.04893   0.00000  Uiso   1.00
C1001  C     0.59230   0.26039   0.04638   0.00000  Uiso   1.00
C1002  C     0.54702   0.37044   0.21083   0.00000  Uiso   1.00
C1003  C     0.62041   0.23382   0.29110   0.00000  Uiso   1.00
C1004  C     0.58625   0.25414   0.29463   0.00000  Uiso   1.00
C1005  C     0.64908   0.23782   0.32619   0.00000  Uiso   1.00
C1006  C     0.54544   0.30018   0.33693   0.00000  Uiso   1.00
C1007  C     0.57908   0.27708   0.33614   0.00000  Uiso   1.00
C1008  C     0.64232   0.26145   0.36703   0.00000  Uiso   1.00
C1009  C     0.61033   0.28292   0.36858   0.00000  Uiso   1.00
C1010  C     0.54450   0.37809   0.46631   0.00000  Uiso   1.00
C1011  C     0.68523   0.21667   0.32682   0.00000  Uiso   1.00
C1012  C     0.58330   0.39790   0.46747   0.00000  Uiso   1.00
C1013  C     0.61124   0.38347   0.24735   0.00000  Uiso   1.00
C1014  C     0.58365   0.39180   0.21076   0.00000  Uiso   1.00
C1015  C     0.60533   0.39101   0.74321   0.00000  Uiso   1.00
C1016  C     0.64390   0.27555   0.61896   0.00000  Uiso   1.00
C1017  C     0.60923   0.29424   0.61964   0.00000  Uiso   1.00
C1018  C     0.68575   0.22489   0.58780   0.00000  Uiso   1.00
C1019  C     0.65002   0.24628   0.58750   0.00000  Uiso   1.00
C1020  C     0.54241   0.30464   0.58620   0.00000  Uiso   1.00
C1021  C     0.57875   0.28337   0.58682   0.00000  Uiso   1.00
C1022  C     0.62021   0.23708   0.55431   0.00000  Uiso   1.00
C1023  C     0.58486   0.25598   0.55376   0.00000  Uiso   1.00
C1024  C     0.54070   0.37726   0.70992   0.00000  Uiso   1.00
C1025  C     0.64216   0.26679   0.87721   0.00000  Uiso   1.00
C1026  C     0.60607   0.28333   0.87731   0.00000  Uiso   1.00
C1027  C     0.69105   0.22284   0.83650   0.00000  Uiso   1.00
C1028  C     0.65490   0.24608   0.83717   0.00000  Uiso   1.00
C1029  C     0.54182   0.29918   0.83627   0.00000  Uiso   1.00
C1030  C     0.58034   0.28124   0.83513   0.00000  Uiso   1.00
C1031  C     0.63129   0.24544   0.79567   0.00000  Uiso   1.00
C1032  C     0.59667   0.26454   0.79167   0.00000  Uiso   1.00
C1033  C     0.54341   0.37697   0.96350   0.00000  Uiso   1.00
C1034  C     0.57696   0.39817   0.70813   0.00000  Uiso   1.00
C1035  C     0.60379   0.39872   0.51178   0.00000  Uiso   1.00
C1036  C     0.58129   0.39539   0.96274   0.00000  Uiso   1.00
C1037  C     0.65374   0.43513   0.47076   0.00000  Uiso   1.00
C1038  C     0.68889   0.45797   0.47048   0.00000  Uiso   1.00
C1039  C     0.64582   0.40368   0.25141   0.00000  Uiso   1.00
C1040  C     0.58707   0.58116   0.30870   0.00000  Uiso   1.00
C1041  C     0.62306   0.56420   0.30746   0.00000  Uiso   1.00
C1042  C     0.59728   0.41725   0.42463   0.00000  Uiso   1.00
C1043  C     0.59174   0.41785   0.17341   0.00000  Uiso   1.00
C1044  C     0.68972   0.55521   0.09016   0.00000  Uiso   1.00
C1045  C     0.65363   0.57713   0.09126   0.00000  Uiso   1.00
C1046  C     0.62843   0.57892   0.04916   0.00000  Uiso   1.00
C1047  C     0.62711   0.43786   0.17624   0.00000  Uiso   1.00
C1048  C     0.68796   0.45423   0.21754   0.00000  Uiso   1.00
C1049  C     0.65456   0.42965   0.21393   0.00000  Uiso   1.00
C1050  C     0.68943   0.55382   0.34082   0.00000  Uiso   1.00
C1051  C     0.65504   0.57614   0.33838   0.00000  Uiso   1.00
C1052  C     0.63289   0.43279   0.42580   0.00000  Uiso   1.00
C1053  C     0.59351   0.59857   0.05080   0.00000  Uiso   1.00
C1054  C     0.64219   0.41231   0.00635   0.00000  Uiso   1.00
C1055  C     0.64228   0.59542   0.13585   0.00000  Uiso   1.00
C1056  C     0.62490   0.43934   0.92557   0.00000  Uiso   1.00
C1057  C     0.58786   0.58864   0.81146   0.00000  Uiso   1.00
C1058  C     0.62832   0.57849   0.54463   0.00000  Uiso   1.00
C1059  C     0.63990   0.41562   0.51408   0.00000  Uiso   1.00
C1060  C     0.68920   0.55904   0.58445   0.00000  Uiso   1.00
C1061  C     0.65446   0.58048   0.58338   0.00000  Uiso   1.00
C1062  C     0.63885   0.41162   0.74900   0.00000  Uiso   1.00
C1063  C     0.61746   0.44658   0.67772   0.00000  Uiso   1.00
C1064  C     0.67972   0.46409   0.71443   0.00000  Uiso   1.00
C1065  C     0.64497   0.44128   0.71506   0.00000  Uiso   1.00
C1066  C     0.59080   0.59497   0.55058   0.00000  Uiso   1.00
C1067  C     0.58432   0.42477   0.67346   0.00000  Uiso   1.00
C1068  C     0.68962   0.55891   0.85007   0.00000  Uiso   1.00
C1069  C     0.65306   0.58061   0.84900   0.00000  Uiso   1.00
C1070  C     0.62474   0.57048   0.81447   0.00000  Uiso   1.00
C1071  C     0.59132   0.41817   0.92194   0.00000  Uiso   1.00
C1072  C     0.68816   0.45672   0.96792   0.00000  Uiso   1.00
C1073  C     0.65154   0.43452   0.96576   0.00000  Uiso   1.00
C1074  C     0.64449   0.59874   0.62749   0.00000  Uiso   1.00
C1075  C     0.58881   0.74543   0.42308   0.00000  Uiso   1.00
C1076  C     0.60754   0.61439   0.13902   0.00000  Uiso   1.00
C1077  C     0.65310   0.76458   0.45402   0.00000  Uiso   1.00
C1078  C     0.62351   0.76460   0.41671   0.00000  Uiso   1.00
C1079  C     0.64376   0.74417   0.24633   0.00000  Uiso   1.00
C1080  C     0.54716   0.63888   0.09468   0.00000  Uiso   1.00
C1081  C     0.58356   0.61737   0.09524   0.00000  Uiso   1.00
C1082  C     0.60746   0.72698   0.24876   0.00000  Uiso   1.00
C1083  C     0.54040   0.71201   0.21460   0.00000  Uiso   1.00
C1084  C     0.57787   0.73331   0.21391   0.00000  Uiso   1.00
C1085  C     0.64517   0.74148   0.00929   0.00000  Uiso   1.00
C1086  C     0.65245   0.76563   0.20534   0.00000  Uiso   1.00
C1087  C     0.54102   0.63093   0.34565   0.00000  Uiso   1.00
C1088  C     0.57866   0.60686   0.34520   0.00000  Uiso   1.00
C1089  C     0.58440   0.75933   0.17769   0.00000  Uiso   1.00
C1090  C     0.62235   0.77317   0.17293   0.00000  Uiso   1.00
C1091  C     0.54636   0.70410   0.47093   0.00000  Uiso   1.00
C1092  C     0.58287   0.72499   0.46716   0.00000  Uiso   1.00
C1093  C     0.61002   0.61870   0.37780   0.00000  Uiso   1.00
C1094  C     0.64881   0.74062   0.49374   0.00000  Uiso   1.00
C1095  C     0.68646   0.79083   0.45226   0.00000  Uiso   1.00
C1096  C     0.68871   0.78955   0.20762   0.00000  Uiso   1.00
C1097  C     0.64795   0.60450   0.37195   0.00000  Uiso   1.00
C1098  C     0.60830   0.72285   0.00690   0.00000  Uiso   1.00
C1099  C     0.69118   0.78737   0.96845   0.00000  Uiso   1.00
C1100  C     0.68573   0.79138   0.71387   0.00000  Uiso   1.00
C1101  C     0.58147   0.61300   0.59508   0.00000  Uiso   1.00
C1102  C     0.54416   0.63070   0.59654   0.00000  Uiso   1.00
C1103  C     0.57878   0.61501   0.84668   0.00000  Uiso   1.00
C1104  C     0.58563   0.75918   0.67930   0.00000  Uiso   1.00
C1105  C     0.54213   0.71148   0.71518   0.00000  Uiso   1.00
C1106  C     0.57763   0.73386   0.71508   0.00000  Uiso   1.00
C1107  C     0.62234   0.77606   0.67742   0.00000  Uiso   1.00
C1108  C     0.65051   0.76938   0.71402   0.00000  Uiso   1.00
C1109  C     0.54231   0.63489   0.84515   0.00000  Uiso   1.00
C1110  C     0.63075   0.76674   0.92709   0.00000  Uiso   1.00
C1111  C     0.60698   0.72597   0.75087   0.00000  Uiso   1.00
C1112  C     0.64186   0.74464   0.75116   0.00000  Uiso   1.00
C1113  C     0.59601   0.74730   0.92453   0.00000  Uiso   1.00
C1114  C     0.54530   0.70641   0.96501   0.00000  Uiso   1.00
C1115  C     0.58359   0.72644   0.96477   0.00000  Uiso   1.00
C1116  C     0.60926   0.61596   0.63337   0.00000  Uiso   1.00
C1117  C     0.65540   0.76420   0.96949   0.00000  Uiso   1.00
C1118  C     0.60887   0.62463   0.88272   0.00000  Uiso   1.00
C1119  C     0.61306   0.72336   0.50133   0.00000  Uiso   1.00
C1120  C     0.64444   0.60949   0.88122   0.00000  Uiso   1.00
C1121  C     0.64196   0.93841   0.12828   0.00000  Uiso   1.00
C1122  C     0.60495   0.95605   0.12600   0.00000  Uiso   1.00
C1123  C     0.69037   0.89277   0.08847   0.00000  Uiso   1.00
C1124  C     0.65361   0.91679   0.08753   0.00000  Uiso   1.00
C1125  C     0.54298   0.97007   0.08734   0.00000  Uiso   1.00
C1126  C     0.57974   0.94922   0.08790   0.00000  Uiso   1.00
C1127  C     0.62912   0.91339   0.04671   0.00000  Uiso   1.00
C1128  C     0.59126   0.92658   0.04799   0.00000  Uiso   1.00
C1129  C     0.61666   0.89429   0.30581   0.00000  Uiso   1.00
C1130  C     0.58257   0.91348   0.31074   0.00000  Uiso   1.00
C1131  C     0.68396   0.88193   0.33352   0.00000  Uiso   1.00
C1132  C     0.64830   0.90303   0.33665   0.00000  Uiso   1.00
C1133  C     0.54390   0.96506   0.34390   0.00000  Uiso   1.00
C1134  C     0.57790   0.94034   0.34642   0.00000  Uiso   1.00
C1135  C     0.64422   0.92847   0.37232   0.00000  Uiso   1.00
C1136  C     0.61114   0.94882   0.37583   0.00000  Uiso   1.00
C1137  C     0.62502   0.90767   0.54077   0.00000  Uiso   1.00
C1138  C     0.59410   0.93190   0.53817   0.00000  Uiso   1.00
C1139  C     0.68377   0.88179   0.58677   0.00000  Uiso   1.00
C1140  C     0.64870   0.90609   0.58468   0.00000  Uiso   1.00
C1141  C     0.54874   0.97346   0.57891   0.00000  Uiso   1.00
C1142  C     0.58401   0.95245   0.57938   0.00000  Uiso   1.00
C1143  C     0.63910   0.92753   0.62516   0.00000  Uiso   1.00
C1144  C     0.60917   0.95222   0.62393   0.00000  Uiso   1.00
C1145  C     0.62500   0.90164   0.80462   0.00000  Uiso   1.00
C1146  C     0.59303   0.92428   0.80562   0.00000  Uiso   1.00
C1147  C     0.68882   0.88404   0.83642   0.00000  Uiso   1.00
C1148  C     0.65525   0.90625   0.83804   0.00000  Uiso   1.00
C1149  C     0.54701   0.96859   0.84537   0.00000  Uiso   1.00
C1150  C     0.58527   0.94805   0.84469   0.00000  Uiso   1.00
C1151  C     0.64987   0.93329   0.87659   0.00000  Uiso   1.00
C1152  C     0.61373   0.95327   0.88078   0.00000  Uiso   1.00
C1153  C     0.84082   0.09791   0.42036   0.00000  Uiso   1.00
C1154  C     0.87557   0.07836   0.42046   0.00000  Uiso   1.00
C1155  C     0.84904   0.09974   0.16568   0.00000  Uiso   1.00
C1156  C     0.88471   0.08253   0.16730   0.00000  Uiso   1.00
C1157  C     0.79947   0.13717   0.20908   0.00000  Uiso   1.00
C1158  C     0.83830   0.12166   0.20767   0.00000  Uiso   1.00
C1159  C     0.94248   0.05956   0.21220   0.00000  Uiso   1.00
C1160  C     0.90918   0.08483   0.20976   0.00000  Uiso   1.00
C1161  C     0.89277   0.09895   0.00500   0.00000  Uiso   1.00
C1162  C     0.79133   0.13723   0.46368   0.00000  Uiso   1.00
C1163  C     0.82908   0.11887   0.46239   0.00000  Uiso   1.00
C1164  C     0.93459   0.05638   0.46610   0.00000  Uiso   1.00
C1165  C     0.89967   0.07795   0.46431   0.00000  Uiso   1.00
C1166  C     0.86475   0.12675   0.24768   0.00000  Uiso   1.00
C1167  C     0.90172   0.11006   0.24703   0.00000  Uiso   1.00
C1168  C     0.85703   0.11670   0.00523   0.00000  Uiso   1.00
C1169  C     0.83607   0.08737   0.67974   0.00000  Uiso   1.00
C1170  C     0.87125   0.06800   0.68149   0.00000  Uiso   1.00
C1171  C     0.79696   0.13782   0.70939   0.00000  Uiso   1.00
C1172  C     0.83188   0.11694   0.71059   0.00000  Uiso   1.00
C1173  C     0.93470   0.05240   0.71404   0.00000  Uiso   1.00
C1174  C     0.89957   0.07688   0.71748   0.00000  Uiso   1.00
C1175  C     0.83722   0.08535   0.92861   0.00000  Uiso   1.00
C1176  C     0.87166   0.06613   0.92997   0.00000  Uiso   1.00
C1177  C     0.79609   0.13493   0.96645   0.00000  Uiso   1.00
C1178  C     0.82954   0.11191   0.96621   0.00000  Uiso   1.00
C1179  C     0.93612   0.05374   0.96441   0.00000  Uiso   1.00
C1180  C     0.90064   0.07475   0.96524   0.00000  Uiso   1.00
C1181  C     0.86152   0.12718   0.74273   0.00000  Uiso   1.00
C1182  C     0.89687   0.10944   0.74260   0.00000  Uiso   1.00
C1183  C     0.88730   0.09816   0.50652   0.00000  Uiso   1.00
C1184  C     0.85213   0.11775   0.50403   0.00000  Uiso   1.00
C1185  C     0.79755   0.21197   0.07850   0.00000  Uiso   1.00
C1186  C     0.94028   0.38855   0.47130   0.00000  Uiso   1.00
C1187  C     0.87192   0.28092   0.11820   0.00000  Uiso   1.00
C1188  C     0.83714   0.26247   0.11536   0.00000  Uiso   1.00
C1189  C     0.89912   0.24477   0.05282   0.00000  Uiso   1.00
C1190  C     0.86415   0.22329   0.04957   0.00000  Uiso   1.00
C1191  C     0.93701   0.29504   0.09401   0.00000  Uiso   1.00
C1192  C     0.90253   0.27252   0.08807   0.00000  Uiso   1.00
C1193  C     0.83296   0.23288   0.08154   0.00000  Uiso   1.00
C1194  C     0.87551   0.27263   0.38364   0.00000  Uiso   1.00
C1195  C     0.83924   0.25459   0.38145   0.00000  Uiso   1.00
C1196  C     0.88719   0.25339   0.29779   0.00000  Uiso   1.00
C1197  C     0.85357   0.23266   0.29719   0.00000  Uiso   1.00
C1198  C     0.93379   0.29620   0.34145   0.00000  Uiso   1.00
C1199  C     0.89978   0.27158   0.34132   0.00000  Uiso   1.00
C1200  C     0.94642   0.39289   0.22181   0.00000  Uiso   1.00
C1201  C     0.82985   0.23373   0.33854   0.00000  Uiso   1.00
C1202  C     0.79418   0.21297   0.33750   0.00000  Uiso   1.00
C1203  C     0.78975   0.21997   0.58629   0.00000  Uiso   1.00
C1204  C     0.87697   0.27391   0.63378   0.00000  Uiso   1.00
C1205  C     0.83959   0.25999   0.63009   0.00000  Uiso   1.00
C1206  C     0.89178   0.24987   0.55259   0.00000  Uiso   1.00
C1207  C     0.85458   0.23535   0.54955   0.00000  Uiso   1.00
C1208  C     0.93747   0.29265   0.59341   0.00000  Uiso   1.00
C1209  C     0.90299   0.26952   0.59513   0.00000  Uiso   1.00
C1210  C     0.82710   0.24013   0.58829   0.00000  Uiso   1.00
C1211  C     0.88621   0.26333   0.88986   0.00000  Uiso   1.00
C1212  C     0.84817   0.24998   0.89119   0.00000  Uiso   1.00
C1213  C     0.89462   0.24648   0.80072   0.00000  Uiso   1.00
C1214  C     0.85594   0.23286   0.80242   0.00000  Uiso   1.00
C1215  C     0.94052   0.28997   0.84452   0.00000  Uiso   1.00
C1216  C     0.90787   0.26375   0.84484   0.00000  Uiso   1.00
C1217  C     0.93358   0.39037   0.72146   0.00000  Uiso   1.00
C1218  C     0.83285   0.23205   0.84795   0.00000  Uiso   1.00
C1219  C     0.93903   0.38747   0.96700   0.00000  Uiso   1.00
C1220  C     0.79408   0.21433   0.84595   0.00000  Uiso   1.00
C1221  C     0.83413   0.56637   0.34089   0.00000  Uiso   1.00
C1222  C     0.84094   0.58929   0.13851   0.00000  Uiso   1.00
C1223  C     0.90810   0.41517   0.46884   0.00000  Uiso   1.00
C1224  C     0.89687   0.57829   0.30113   0.00000  Uiso   1.00
C1225  C     0.84520   0.42644   0.43550   0.00000  Uiso   1.00
C1226  C     0.89467   0.43626   0.00301   0.00000  Uiso   1.00
C1227  C     0.79702   0.46556   0.21888   0.00000  Uiso   1.00
C1228  C     0.83619   0.44865   0.21764   0.00000  Uiso   1.00
C1229  C     0.88781   0.58087   0.05352   0.00000  Uiso   1.00
C1230  C     0.85971   0.56215   0.30112   0.00000  Uiso   1.00
C1231  C     0.79267   0.54423   0.09947   0.00000  Uiso   1.00
C1232  C     0.82819   0.56586   0.09882   0.00000  Uiso   1.00
C1233  C     0.85041   0.42953   0.17470   0.00000  Uiso   1.00
C1234  C     0.80131   0.47324   0.47121   0.00000  Uiso   1.00
C1235  C     0.83648   0.45124   0.47214   0.00000  Uiso   1.00
C1236  C     0.85179   0.56469   0.05585   0.00000  Uiso   1.00
C1237  C     0.86287   0.45386   0.25707   0.00000  Uiso   1.00
C1238  C     0.89945   0.43960   0.25621   0.00000  Uiso   1.00
C1239  C     0.79809   0.54329   0.33660   0.00000  Uiso   1.00
C1240  C     0.91130   0.41727   0.21718   0.00000  Uiso   1.00
C1241  C     0.88684   0.41486   0.17437   0.00000  Uiso   1.00
C1242  C     0.84342   0.58960   0.37911   0.00000  Uiso   1.00
C1243  C     0.88029   0.41027   0.43293   0.00000  Uiso   1.00
C1244  C     0.86009   0.45633   0.00178   0.00000  Uiso   1.00
C1245  C     0.84389   0.58446   0.64039   0.00000  Uiso   1.00
C1246  C     0.84143   0.58191   0.88190   0.00000  Uiso   1.00
C1247  C     0.90508   0.59699   0.59534   0.00000  Uiso   1.00
C1248  C     0.87797   0.40759   0.92538   0.00000  Uiso   1.00
C1249  C     0.89346   0.57483   0.55596   0.00000  Uiso   1.00
C1250  C     0.90380   0.41075   0.96606   0.00000  Uiso   1.00
C1251  C     0.79122   0.47167   0.71535   0.00000  Uiso   1.00
C1252  C     0.82800   0.45002   0.71852   0.00000  Uiso   1.00
C1253  C     0.83915   0.42833   0.67768   0.00000  Uiso   1.00
C1254  C     0.89248   0.57458   0.80169   0.00000  Uiso   1.00
C1255  C     0.85849   0.55577   0.56103   0.00000  Uiso   1.00
C1256  C     0.79413   0.54461   0.59906   0.00000  Uiso   1.00
C1257  C     0.83266   0.56148   0.59932   0.00000  Uiso   1.00
C1258  C     0.84304   0.42667   0.92390   0.00000  Uiso   1.00
C1259  C     0.89821   0.41189   0.72168   0.00000  Uiso   1.00
C1260  C     0.79738   0.47173   0.96503   0.00000  Uiso   1.00
C1261  C     0.83389   0.45015   0.96391   0.00000  Uiso   1.00
C1262  C     0.85255   0.45252   0.75900   0.00000  Uiso   1.00
C1263  C     0.85532   0.55740   0.80223   0.00000  Uiso   1.00
C1264  C     0.88837   0.43506   0.76073   0.00000  Uiso   1.00
C1265  C     0.79158   0.54163   0.84213   0.00000  Uiso   1.00
C1266  C     0.83113   0.55997   0.84208   0.00000  Uiso   1.00
C1267  C     0.87184   0.40759   0.68192   0.00000  Uiso   1.00
C1268  C     0.90411   0.59739   0.84145   0.00000  Uiso   1.00
C1269  C     0.90268   0.44329   0.50185   0.00000  Uiso   1.00
C1270  C     0.86698   0.46215   0.50435   0.00000  Uiso   1.00
C1271  C     0.83177   0.77643   0.45878   0.00000  Uiso   1.00
C1272  C     0.89540   0.76997   0.25212   0.00000  Uiso   1.00
C1273  C     0.93592   0.62427   0.09458   0.00000  Uiso   1.00
C1274  C     0.84313   0.76001   0.17247   0.00000  Uiso   1.00
C1275  C     0.87748   0.73966   0.17672   0.00000  Uiso   1.00
C1276  C     0.83366   0.78571   0.20896   0.00000  Uiso   1.00
C1277  C     0.93801   0.72252   0.21847   0.00000  Uiso   1.00
C1278  C     0.90323   0.74485   0.21677   0.00000  Uiso   1.00
C1279  C     0.87493   0.60755   0.13404   0.00000  Uiso   1.00
C1280  C     0.93818   0.62835   0.33491   0.00000  Uiso   1.00
C1281  C     0.84049   0.75031   0.42292   0.00000  Uiso   1.00
C1282  C     0.87823   0.73239   0.42492   0.00000  Uiso   1.00
C1283  C     0.90485   0.74370   0.46247   0.00000  Uiso   1.00
C1284  C     0.93963   0.72097   0.46580   0.00000  Uiso   1.00
C1285  C     0.87714   0.60925   0.37667   0.00000  Uiso   1.00
C1286  C     0.86025   0.78532   0.00547   0.00000  Uiso   1.00
C1287  C     0.86114   0.79026   0.24921   0.00000  Uiso   1.00
C1288  C     0.85862   0.78498   0.49755   0.00000  Uiso   1.00
C1289  C     0.89485   0.76581   0.00480   0.00000  Uiso   1.00
C1290  C     0.79491   0.79537   0.45840   0.00000  Uiso   1.00
C1291  C     0.89999   0.60321   0.09340   0.00000  Uiso   1.00
C1292  C     0.90406   0.60458   0.33757   0.00000  Uiso   1.00
C1293  C     0.89589   0.77067   0.49745   0.00000  Uiso   1.00
C1294  C     0.87338   0.73178   0.93188   0.00000  Uiso   1.00
C1295  C     0.84128   0.75568   0.67043   0.00000  Uiso   1.00
C1296  C     0.93754   0.62254   0.59569   0.00000  Uiso   1.00
C1297  C     0.87863   0.60218   0.63736   0.00000  Uiso   1.00
C1298  C     0.87890   0.74125   0.66853   0.00000  Uiso   1.00
C1299  C     0.82785   0.77061   0.71520   0.00000  Uiso   1.00
C1300  C     0.93900   0.71463   0.71116   0.00000  Uiso   1.00
C1301  C     0.90215   0.73690   0.71171   0.00000  Uiso   1.00
C1302  C     0.88751   0.75269   0.75636   0.00000  Uiso   1.00
C1303  C     0.93791   0.62133   0.83928   0.00000  Uiso   1.00
C1304  C     0.84028   0.75309   0.92942   0.00000  Uiso   1.00
C1305  C     0.85013   0.76668   0.75943   0.00000  Uiso   1.00
C1306  C     0.83305   0.77921   0.96615   0.00000  Uiso   1.00
C1307  C     0.93408   0.71450   0.97091   0.00000  Uiso   1.00
C1308  C     0.90080   0.73896   0.97009   0.00000  Uiso   1.00
C1309  C     0.87695   0.60047   0.88008   0.00000  Uiso   1.00
C1310  C     0.79011   0.79113   0.71594   0.00000  Uiso   1.00
C1311  C     0.87832   0.94151   0.05218   0.00000  Uiso   1.00
C1312  C     0.84180   0.92420   0.05033   0.00000  Uiso   1.00
C1313  C     0.89023   0.92034   0.13639   0.00000  Uiso   1.00
C1314  C     0.85729   0.89826   0.13045   0.00000  Uiso   1.00
C1315  C     0.93697   0.96409   0.09449   0.00000  Uiso   1.00
C1316  C     0.90194   0.94144   0.09526   0.00000  Uiso   1.00
C1317  C     0.79770   0.87921   0.08625   0.00000  Uiso   1.00
C1318  C     0.83382   0.89865   0.08722   0.00000  Uiso   1.00
C1319  C     0.90011   0.90999   0.36265   0.00000  Uiso   1.00
C1320  C     0.86547   0.89014   0.36140   0.00000  Uiso   1.00
C1321  C     0.86920   0.95291   0.30298   0.00000  Uiso   1.00
C1322  C     0.83738   0.93076   0.30077   0.00000  Uiso   1.00
C1323  C     0.93778   0.96275   0.33497   0.00000  Uiso   1.00
C1324  C     0.90366   0.94024   0.33048   0.00000  Uiso   1.00
C1325  C     0.79795   0.87957   0.33236   0.00000  Uiso   1.00
C1326  C     0.83399   0.89940   0.33082   0.00000  Uiso   1.00
C1327  C     0.79951   0.80706   0.21175   0.00000  Uiso   1.00
C1328  C     0.89259   0.91140   0.62453   0.00000  Uiso   1.00
C1329  C     0.86207   0.88816   0.62377   0.00000  Uiso   1.00
C1330  C     0.87577   0.93185   0.54042   0.00000  Uiso   1.00
C1331  C     0.84297   0.91073   0.54230   0.00000  Uiso   1.00
C1332  C     0.93444   0.95845   0.58427   0.00000  Uiso   1.00
C1333  C     0.90100   0.93168   0.58216   0.00000  Uiso   1.00
C1334  C     0.79570   0.87138   0.58530   0.00000  Uiso   1.00
C1335  C     0.83345   0.89082   0.58468   0.00000  Uiso   1.00
C1336  C     0.87515   0.93084   0.79917   0.00000  Uiso   1.00
C1337  C     0.84047   0.91257   0.79773   0.00000  Uiso   1.00
C1338  C     0.89215   0.90826   0.88170   0.00000  Uiso   1.00
C1339  C     0.85880   0.88833   0.87988   0.00000  Uiso   1.00
C1340  C     0.93386   0.95636   0.84185   0.00000  Uiso   1.00
C1341  C     0.89968   0.93037   0.84186   0.00000  Uiso   1.00
C1342  C     0.79689   0.87032   0.83779   0.00000  Uiso   1.00
C1343  C     0.83335   0.88982   0.83806   0.00000  Uiso   1.00
C1344  C     0.79669   0.80138   0.96584   0.00000  Uiso   1.00
O1345  O     0.19882   0.13493   0.00443   0.00000  Uiso   1.00
O1346  O     0.03221   0.04147   0.26207   0.00000  Uiso   1.00
O1347  O     0.02916   0.03737   0.41947   0.00000  Uiso   1.00
O1348  O     0.20346   0.13246   0.41858   0.00000  Uiso   1.00
O1349  O     0.20694   0.13165   0.17174   0.00000  Uiso   1.00
O1350  O     0.03518   0.03582   0.17575   0.00000  Uiso   1.00
O1351  O     0.20178   0.13978   0.25695   0.00000  Uiso   1.00
O1352  O     0.02915   0.03671   0.00571   0.00000  Uiso   1.00
O1353  O     0.19811   0.13330   0.75428   0.00000  Uiso   1.00
O1354  O     0.02832   0.03389   0.75434   0.00000  Uiso   1.00
O1355  O     0.02673   0.03710   0.91718   0.00000  Uiso   1.00
O1356  O     0.19593   0.14050   0.91861   0.00000  Uiso   1.00
O1357  O     0.20102   0.13041   0.66840   0.00000  Uiso   1.00
O1358  O     0.02653   0.03135   0.66786   0.00000  Uiso   1.00
O1359  O     0.19623   0.13466   0.50582   0.00000  Uiso   1.00
O1360  O     0.02671   0.03658   0.50584   0.00000  Uiso   1.00
O1361  O     0.19836   0.20722   0.04823   0.00000  Uiso   1.00
O1362  O     0.02684   0.30467   0.30829   0.00000  Uiso   1.00
O1363  O     0.02990   0.36927   0.17640   0.00000  Uiso   1.00
O1364  O     0.03239   0.36861   0.01766   0.00000  Uiso   1.00
O1365  O     0.19782   0.20479   0.13510   0.00000  Uiso   1.00
O1366  O     0.03048   0.36519   0.42640   0.00000  Uiso   1.00
O1367  O     0.03423   0.36503   0.26273   0.00000  Uiso   1.00
O1368  O     0.02981   0.30950   0.05233   0.00000  Uiso   1.00
O1369  O     0.03080   0.31334   0.13950   0.00000  Uiso   1.00
O1370  O     0.02766   0.30567   0.39448   0.00000  Uiso   1.00
O1371  O     0.20036   0.21287   0.29381   0.00000  Uiso   1.00
O1372  O     0.20242   0.20833   0.37982   0.00000  Uiso   1.00
O1373  O     0.02992   0.36673   0.51293   0.00000  Uiso   1.00
O1374  O     0.02770   0.31693   0.80063   0.00000  Uiso   1.00
O1375  O     0.02829   0.37116   0.67355   0.00000  Uiso   1.00
O1376  O     0.19687   0.20528   0.54135   0.00000  Uiso   1.00
O1377  O     0.19578   0.20271   0.62849   0.00000  Uiso   1.00
O1378  O     0.20166   0.21371   0.87465   0.00000  Uiso   1.00
O1379  O     0.03167   0.36763   0.92908   0.00000  Uiso   1.00
O1380  O     0.02444   0.37446   0.75945   0.00000  Uiso   1.00
O1381  O     0.02663   0.31105   0.55349   0.00000  Uiso   1.00
O1382  O     0.03043   0.31683   0.63889   0.00000  Uiso   1.00
O1383  O     0.03357   0.31591   0.88656   0.00000  Uiso   1.00
O1384  O     0.19206   0.20143   0.79153   0.00000  Uiso   1.00
O1385  O     0.20061   0.54003   0.37979   0.00000  Uiso   1.00
O1386  O     0.19392   0.47335   0.00945   0.00000  Uiso   1.00
O1387  O     0.20098   0.54035   0.29330   0.00000  Uiso   1.00
O1388  O     0.20372   0.46276   0.25373   0.00000  Uiso   1.00
O1389  O     0.20442   0.46672   0.16935   0.00000  Uiso   1.00
O1390  O     0.20130   0.46731   0.41728   0.00000  Uiso   1.00
O1391  O     0.19980   0.53828   0.13049   0.00000  Uiso   1.00
O1392  O     0.20536   0.54637   0.04708   0.00000  Uiso   1.00
O1393  O     0.19851   0.47005   0.75490   0.00000  Uiso   1.00
O1394  O     0.20179   0.53871   0.88244   0.00000  Uiso   1.00
O1395  O     0.20174   0.54164   0.79542   0.00000  Uiso   1.00
O1396  O     0.20005   0.54117   0.63202   0.00000  Uiso   1.00
O1397  O     0.20946   0.45937   0.92481   0.00000  Uiso   1.00
O1398  O     0.19668   0.46666   0.66807   0.00000  Uiso   1.00
O1399  O     0.20505   0.54450   0.54637   0.00000  Uiso   1.00
O1400  O     0.19480   0.47081   0.50474   0.00000  Uiso   1.00
O1401  O     0.03572   0.65046   0.38555   0.00000  Uiso   1.00
O1402  O     0.03344   0.70047   0.42638   0.00000  Uiso   1.00
O1403  O     0.03289   0.64753   0.29750   0.00000  Uiso   1.00
O1404  O     0.02685   0.70924   0.25769   0.00000  Uiso   1.00
O1405  O     0.03076   0.70173   0.17234   0.00000  Uiso   1.00
O1406  O     0.03007   0.63669   0.05312   0.00000  Uiso   1.00
O1407  O     0.03285   0.64225   0.13977   0.00000  Uiso   1.00
O1408  O     0.03326   0.69677   0.01076   0.00000  Uiso   1.00
O1409  O     0.02977   0.64008   0.88686   0.00000  Uiso   1.00
O1410  O     0.02878   0.69713   0.92199   0.00000  Uiso   1.00
O1411  O     0.02729   0.63660   0.79953   0.00000  Uiso   1.00
O1412  O     0.03252   0.69784   0.76384   0.00000  Uiso   1.00
O1413  O     0.03369   0.69854   0.67665   0.00000  Uiso   1.00
O1414  O     0.03045   0.70001   0.51351   0.00000  Uiso   1.00
O1415  O     0.02836   0.63773   0.54346   0.00000  Uiso   1.00
O1416  O     0.03223   0.64510   0.63095   0.00000  Uiso   1.00
O1417  O     0.02458   0.97767   0.38227   0.00000  Uiso   1.00
O1418  O     0.20046   0.87903   0.30060   0.00000  Uiso   1.00
O1419  O     0.03350   0.97959   0.04692   0.00000  Uiso   1.00
O1420  O     0.20029   0.87421   0.05089   0.00000  Uiso   1.00
O1421  O     0.20359   0.87645   0.38543   0.00000  Uiso   1.00
O1422  O     0.03212   0.97887   0.13029   0.00000  Uiso   1.00
O1423  O     0.20788   0.88045   0.13748   0.00000  Uiso   1.00
O1424  O     0.03346   0.98418   0.29639   0.00000  Uiso   1.00
O1425  O     0.19979   0.80871   0.17313   0.00000  Uiso   1.00
O1426  O     0.19603   0.81253   0.26020   0.00000  Uiso   1.00
O1427  O     0.19986   0.80287   0.42424   0.00000  Uiso   1.00
O1428  O     0.19611   0.80430   0.01142   0.00000  Uiso   1.00
O1429  O     0.02971   0.97843   0.88355   0.00000  Uiso   1.00
O1430  O     0.02796   0.97987   0.54450   0.00000  Uiso   1.00
O1431  O     0.20327   0.87639   0.54556   0.00000  Uiso   1.00
O1432  O     0.20032   0.87808   0.88129   0.00000  Uiso   1.00
O1433  O     0.02163   0.96948   0.63200   0.00000  Uiso   1.00
O1434  O     0.19635   0.87292   0.63205   0.00000  Uiso   1.00
O1435  O     0.02828   0.97834   0.79904   0.00000  Uiso   1.00
O1436  O     0.19609   0.80791   0.92383   0.00000  Uiso   1.00
O1437  O     0.20321   0.87815   0.79585   0.00000  Uiso   1.00
O1438  O     0.19354   0.80808   0.75768   0.00000  Uiso   1.00
O1439  O     0.20334   0.80319   0.67318   0.00000  Uiso   1.00
O1440  O     0.20755   0.80232   0.51097   0.00000  Uiso   1.00
O1441  O     0.27836   0.14175   0.25826   0.00000  Uiso   1.00
O1442  O     0.45146   0.04532   0.41641   0.00000  Uiso   1.00
O1443  O     0.45211   0.04202   0.25421   0.00000  Uiso   1.00
O1444  O     0.27995   0.14386   0.42132   0.00000  Uiso   1.00
O1445  O     0.44820   0.04154   0.16814   0.00000  Uiso   1.00
O1446  O     0.28266   0.14531   0.17361   0.00000  Uiso   1.00
O1447  O     0.45586   0.05114   0.01065   0.00000  Uiso   1.00
O1448  O     0.27954   0.14809   0.01008   0.00000  Uiso   1.00
O1449  O     0.27838   0.19992   0.04310   0.00000  Uiso   1.00
O1450  O     0.28102   0.19667   0.13001   0.00000  Uiso   1.00
O1451  O     0.27722   0.13946   0.50527   0.00000  Uiso   1.00
O1452  O     0.45246   0.04498   0.92435   0.00000  Uiso   1.00
O1453  O     0.27745   0.13983   0.75237   0.00000  Uiso   1.00
O1454  O     0.45159   0.04527   0.50180   0.00000  Uiso   1.00
O1455  O     0.44776   0.03216   0.75411   0.00000  Uiso   1.00
O1456  O     0.44937   0.04266   0.66949   0.00000  Uiso   1.00
O1457  O     0.27714   0.13680   0.66573   0.00000  Uiso   1.00
O1458  O     0.27686   0.14440   0.92298   0.00000  Uiso   1.00
O1459  O     0.27690   0.19845   0.62941   0.00000  Uiso   1.00
O1460  O     0.44897   0.30263   0.29236   0.00000  Uiso   1.00
O1461  O     0.45435   0.37619   0.25841   0.00000  Uiso   1.00
O1462  O     0.44713   0.37150   0.41312   0.00000  Uiso   1.00
O1463  O     0.45339   0.37763   0.00692   0.00000  Uiso   1.00
O1464  O     0.45527   0.29936   0.37671   0.00000  Uiso   1.00
O1465  O     0.44768   0.30226   0.12657   0.00000  Uiso   1.00
O1466  O     0.44912   0.30355   0.03829   0.00000  Uiso   1.00
O1467  O     0.44548   0.37257   0.17167   0.00000  Uiso   1.00
O1468  O     0.45139   0.37725   0.49813   0.00000  Uiso   1.00
O1469  O     0.28068   0.20149   0.37998   0.00000  Uiso   1.00
O1470  O     0.28003   0.20330   0.29584   0.00000  Uiso   1.00
O1471  O     0.44225   0.30919   0.78861   0.00000  Uiso   1.00
O1472  O     0.45586   0.38254   0.75357   0.00000  Uiso   1.00
O1473  O     0.45123   0.37617   0.91744   0.00000  Uiso   1.00
O1474  O     0.44661   0.30582   0.62923   0.00000  Uiso   1.00
O1475  O     0.44528   0.30177   0.54329   0.00000  Uiso   1.00
O1476  O     0.44743   0.37884   0.66696   0.00000  Uiso   1.00
O1477  O     0.45048   0.30462   0.87483   0.00000  Uiso   1.00
O1478  O     0.27757   0.20067   0.54102   0.00000  Uiso   1.00
O1479  O     0.27486   0.20191   0.79312   0.00000  Uiso   1.00
O1480  O     0.27702   0.20371   0.88211   0.00000  Uiso   1.00
O1481  O     0.27919   0.47548   0.41639   0.00000  Uiso   1.00
O1482  O     0.27938   0.53756   0.04071   0.00000  Uiso   1.00
O1483  O     0.28198   0.47962   0.25573   0.00000  Uiso   1.00
O1484  O     0.28621   0.48433   0.16899   0.00000  Uiso   1.00
O1485  O     0.27947   0.53493   0.37984   0.00000  Uiso   1.00
O1486  O     0.27943   0.53059   0.29383   0.00000  Uiso   1.00
O1487  O     0.27646   0.53735   0.12868   0.00000  Uiso   1.00
O1488  O     0.28364   0.48219   0.00396   0.00000  Uiso   1.00
O1489  O     0.27996   0.53432   0.88231   0.00000  Uiso   1.00
O1490  O     0.28044   0.52970   0.54311   0.00000  Uiso   1.00
O1491  O     0.27456   0.53690   0.62817   0.00000  Uiso   1.00
O1492  O     0.28472   0.48004   0.91553   0.00000  Uiso   1.00
O1493  O     0.28022   0.48086   0.66817   0.00000  Uiso   1.00
O1494  O     0.27661   0.47264   0.50234   0.00000  Uiso   1.00
O1495  O     0.27510   0.47143   0.75204   0.00000  Uiso   1.00
O1496  O     0.28046   0.53076   0.79422   0.00000  Uiso   1.00
O1497  O     0.45330   0.63343   0.13318   0.00000  Uiso   1.00
O1498  O     0.44710   0.63821   0.04895   0.00000  Uiso   1.00
O1499  O     0.44605   0.70816   0.17984   0.00000  Uiso   1.00
O1500  O     0.44357   0.70316   0.26646   0.00000  Uiso   1.00
O1501  O     0.45433   0.71413   0.01210   0.00000  Uiso   1.00
O1502  O     0.45367   0.71119   0.42494   0.00000  Uiso   1.00
O1503  O     0.44852   0.63646   0.38034   0.00000  Uiso   1.00
O1504  O     0.44794   0.63230   0.29486   0.00000  Uiso   1.00
O1505  O     0.44611   0.70875   0.75935   0.00000  Uiso   1.00
O1506  O     0.44568   0.63865   0.88448   0.00000  Uiso   1.00
O1507  O     0.44798   0.71051   0.92367   0.00000  Uiso   1.00
O1508  O     0.44469   0.70550   0.67065   0.00000  Uiso   1.00
O1509  O     0.45450   0.63086   0.63990   0.00000  Uiso   1.00
O1510  O     0.44437   0.63414   0.55172   0.00000  Uiso   1.00
O1511  O     0.44960   0.70599   0.51276   0.00000  Uiso   1.00
O1512  O     0.44851   0.63539   0.79774   0.00000  Uiso   1.00
O1513  O     0.27493   0.80262   0.42467   0.00000  Uiso   1.00
O1514  O     0.45278   0.96840   0.38519   0.00000  Uiso   1.00
O1515  O     0.27967   0.81647   0.26528   0.00000  Uiso   1.00
O1516  O     0.44942   0.97052   0.29817   0.00000  Uiso   1.00
O1517  O     0.28235   0.86898   0.13040   0.00000  Uiso   1.00
O1518  O     0.27574   0.87589   0.30421   0.00000  Uiso   1.00
O1519  O     0.28070   0.86575   0.04292   0.00000  Uiso   1.00
O1520  O     0.44358   0.98012   0.04806   0.00000  Uiso   1.00
O1521  O     0.28517   0.86193   0.38847   0.00000  Uiso   1.00
O1522  O     0.45261   0.97033   0.13179   0.00000  Uiso   1.00
O1523  O     0.27404   0.80280   0.00911   0.00000  Uiso   1.00
O1524  O     0.28210   0.81221   0.17957   0.00000  Uiso   1.00
O1525  O     0.28316   0.81735   0.67188   0.00000  Uiso   1.00
O1526  O     0.45098   0.97221   0.88598   0.00000  Uiso   1.00
O1527  O     0.27503   0.80695   0.75508   0.00000  Uiso   1.00
O1528  O     0.28016   0.86535   0.79583   0.00000  Uiso   1.00
O1529  O     0.45132   0.96669   0.80031   0.00000  Uiso   1.00
O1530  O     0.27731   0.87992   0.63867   0.00000  Uiso   1.00
O1531  O     0.45351   0.97225   0.63652   0.00000  Uiso   1.00
O1532  O     0.27865   0.87610   0.55137   0.00000  Uiso   1.00
O1533  O     0.44811   0.97404   0.55073   0.00000  Uiso   1.00
O1534  O     0.28014   0.81389   0.92277   0.00000  Uiso   1.00
O1535  O     0.27511   0.87194   0.88077   0.00000  Uiso   1.00
O1536  O     0.28660   0.81844   0.50774   0.00000  Uiso   1.00
O1537  O     0.52883   0.03647   0.42017   0.00000  Uiso   1.00
O1538  O     0.53083   0.03771   0.00582   0.00000  Uiso   1.00
O1539  O     0.70286   0.13633   0.25371   0.00000  Uiso   1.00
O1540  O     0.69679   0.14108   0.42094   0.00000  Uiso   1.00
O1541  O     0.53455   0.03068   0.26352   0.00000  Uiso   1.00
O1542  O     0.70123   0.13723   0.16804   0.00000  Uiso   1.00
O1543  O     0.53321   0.03707   0.17777   0.00000  Uiso   1.00
O1544  O     0.70088   0.13448   0.00528   0.00000  Uiso   1.00
O1545  O     0.53141   0.03759   0.91867   0.00000  Uiso   1.00
O1546  O     0.69805   0.14187   0.50804   0.00000  Uiso   1.00
O1547  O     0.53388   0.03065   0.76377   0.00000  Uiso   1.00
O1548  O     0.70346   0.13794   0.75999   0.00000  Uiso   1.00
O1549  O     0.70009   0.14188   0.67432   0.00000  Uiso   1.00
O1550  O     0.52500   0.04408   0.67880   0.00000  Uiso   1.00
O1551  O     0.70065   0.13478   0.92084   0.00000  Uiso   1.00
O1552  O     0.53145   0.03395   0.50814   0.00000  Uiso   1.00
O1553  O     0.70534   0.21206   0.13012   0.00000  Uiso   1.00
O1554  O     0.52923   0.30592   0.29325   0.00000  Uiso   1.00
O1555  O     0.52691   0.36807   0.16809   0.00000  Uiso   1.00
O1556  O     0.52948   0.36418   0.00398   0.00000  Uiso   1.00
O1557  O     0.52892   0.36947   0.42245   0.00000  Uiso   1.00
O1558  O     0.70101   0.20924   0.04436   0.00000  Uiso   1.00
O1559  O     0.53384   0.36031   0.25426   0.00000  Uiso   1.00
O1560  O     0.53069   0.31206   0.04699   0.00000  Uiso   1.00
O1561  O     0.52759   0.30632   0.13120   0.00000  Uiso   1.00
O1562  O     0.53505   0.31471   0.37735   0.00000  Uiso   1.00
O1563  O     0.69571   0.20640   0.37288   0.00000  Uiso   1.00
O1564  O     0.70228   0.20554   0.28583   0.00000  Uiso   1.00
O1565  O     0.52399   0.30784   0.79168   0.00000  Uiso   1.00
O1566  O     0.69754   0.21313   0.63089   0.00000  Uiso   1.00
O1567  O     0.52711   0.31006   0.87951   0.00000  Uiso   1.00
O1568  O     0.52296   0.37153   0.66667   0.00000  Uiso   1.00
O1569  O     0.52907   0.36987   0.91921   0.00000  Uiso   1.00
O1570  O     0.52924   0.36569   0.75265   0.00000  Uiso   1.00
O1571  O     0.52525   0.31037   0.54253   0.00000  Uiso   1.00
O1572  O     0.69927   0.21524   0.54349   0.00000  Uiso   1.00
O1573  O     0.52768   0.31417   0.62843   0.00000  Uiso   1.00
O1574  O     0.70285   0.21218   0.87945   0.00000  Uiso   1.00
O1575  O     0.52916   0.36676   0.50761   0.00000  Uiso   1.00
O1576  O     0.70138   0.20859   0.79318   0.00000  Uiso   1.00
O1577  O     0.69754   0.47241   0.01067   0.00000  Uiso   1.00
O1578  O     0.70017   0.46639   0.17549   0.00000  Uiso   1.00
O1579  O     0.70176   0.54411   0.38396   0.00000  Uiso   1.00
O1580  O     0.70690   0.54700   0.04881   0.00000  Uiso   1.00
O1581  O     0.70466   0.54121   0.29831   0.00000  Uiso   1.00
O1582  O     0.70441   0.46217   0.26049   0.00000  Uiso   1.00
O1583  O     0.69711   0.53907   0.13357   0.00000  Uiso   1.00
O1584  O     0.69973   0.47427   0.42863   0.00000  Uiso   1.00
O1585  O     0.69500   0.47439   0.67123   0.00000  Uiso   1.00
O1586  O     0.70217   0.54540   0.54235   0.00000  Uiso   1.00
O1587  O     0.70000   0.54415   0.89232   0.00000  Uiso   1.00
O1588  O     0.70065   0.54752   0.62833   0.00000  Uiso   1.00
O1589  O     0.69405   0.47220   0.75861   0.00000  Uiso   1.00
O1590  O     0.70631   0.46506   0.51315   0.00000  Uiso   1.00
O1591  O     0.70062   0.54777   0.80685   0.00000  Uiso   1.00
O1592  O     0.70489   0.46544   0.92632   0.00000  Uiso   1.00
O1593  O     0.53060   0.69817   0.00891   0.00000  Uiso   1.00
O1594  O     0.52914   0.64253   0.38791   0.00000  Uiso   1.00
O1595  O     0.52809   0.69917   0.42783   0.00000  Uiso   1.00
O1596  O     0.52437   0.64090   0.30390   0.00000  Uiso   1.00
O1597  O     0.52653   0.70000   0.25770   0.00000  Uiso   1.00
O1598  O     0.52598   0.70483   0.17073   0.00000  Uiso   1.00
O1599  O     0.53245   0.65115   0.05166   0.00000  Uiso   1.00
O1600  O     0.53083   0.64825   0.13727   0.00000  Uiso   1.00
O1601  O     0.70430   0.79840   0.25279   0.00000  Uiso   1.00
O1602  O     0.70371   0.79678   0.49456   0.00000  Uiso   1.00
O1603  O     0.52539   0.64350   0.88750   0.00000  Uiso   1.00
O1604  O     0.52699   0.69889   0.92287   0.00000  Uiso   1.00
O1605  O     0.52912   0.64698   0.80267   0.00000  Uiso   1.00
O1606  O     0.52876   0.69981   0.75914   0.00000  Uiso   1.00
O1607  O     0.52602   0.70422   0.67298   0.00000  Uiso   1.00
O1608  O     0.53110   0.69425   0.51466   0.00000  Uiso   1.00
O1609  O     0.52546   0.63697   0.55347   0.00000  Uiso   1.00
O1610  O     0.53084   0.64311   0.63939   0.00000  Uiso   1.00
O1611  O     0.70610   0.79665   0.92549   0.00000  Uiso   1.00
O1612  O     0.69227   0.86742   0.29069   0.00000  Uiso   1.00
O1613  O     0.53024   0.97801   0.38500   0.00000  Uiso   1.00
O1614  O     0.52778   0.97079   0.29903   0.00000  Uiso   1.00
O1615  O     0.52874   0.97921   0.04664   0.00000  Uiso   1.00
O1616  O     0.70307   0.87767   0.04553   0.00000  Uiso   1.00
O1617  O     0.70505   0.87852   0.37505   0.00000  Uiso   1.00
O1618  O     0.52618   0.97620   0.13151   0.00000  Uiso   1.00
O1619  O     0.70446   0.88189   0.13167   0.00000  Uiso   1.00
O1620  O     0.70259   0.80180   0.01064   0.00000  Uiso   1.00
O1621  O     0.70346   0.80282   0.16757   0.00000  Uiso   1.00
O1622  O     0.69644   0.80714   0.41101   0.00000  Uiso   1.00
O1623  O     0.53374   0.98364   0.88703   0.00000  Uiso   1.00
O1624  O     0.53633   0.98782   0.62122   0.00000  Uiso   1.00
O1625  O     0.52651   0.97360   0.53790   0.00000  Uiso   1.00
O1626  O     0.69897   0.86910   0.54515   0.00000  Uiso   1.00
O1627  O     0.70069   0.87035   0.87974   0.00000  Uiso   1.00
O1628  O     0.70015   0.87647   0.63174   0.00000  Uiso   1.00
O1629  O     0.70701   0.87553   0.79403   0.00000  Uiso   1.00
O1630  O     0.52673   0.97069   0.80353   0.00000  Uiso   1.00
O1631  O     0.70007   0.80287   0.67079   0.00000  Uiso   1.00
O1632  O     0.69865   0.80128   0.75853   0.00000  Uiso   1.00
O1633  O     0.95017   0.04159   0.00720   0.00000  Uiso   1.00
O1634  O     0.94689   0.04466   0.42201   0.00000  Uiso   1.00
O1635  O     0.78461   0.14529   0.25214   0.00000  Uiso   1.00
O1636  O     0.95461   0.04660   0.25440   0.00000  Uiso   1.00
O1637  O     0.95735   0.05133   0.16855   0.00000  Uiso   1.00
O1638  O     0.78452   0.14746   0.16607   0.00000  Uiso   1.00
O1639  O     0.77313   0.14109   0.41970   0.00000  Uiso   1.00
O1640  O     0.78257   0.14605   0.00959   0.00000  Uiso   1.00
O1641  O     0.78412   0.19956   0.12104   0.00000  Uiso   1.00
O1642  O     0.78095   0.15372   0.50438   0.00000  Uiso   1.00
O1643  O     0.78033   0.14376   0.92251   0.00000  Uiso   1.00
O1644  O     0.78248   0.14560   0.75311   0.00000  Uiso   1.00
O1645  O     0.94865   0.04386   0.92110   0.00000  Uiso   1.00
O1646  O     0.95128   0.04416   0.75689   0.00000  Uiso   1.00
O1647  O     0.94600   0.03947   0.66939   0.00000  Uiso   1.00
O1648  O     0.78190   0.14925   0.66683   0.00000  Uiso   1.00
O1649  O     0.94675   0.04272   0.50805   0.00000  Uiso   1.00
O1650  O     0.94671   0.30993   0.29977   0.00000  Uiso   1.00
O1651  O     0.95703   0.37973   0.26656   0.00000  Uiso   1.00
O1652  O     0.78026   0.20345   0.29401   0.00000  Uiso   1.00
O1653  O     0.95423   0.37801   0.42881   0.00000  Uiso   1.00
O1654  O     0.95083   0.37411   0.00979   0.00000  Uiso   1.00
O1655  O     0.94623   0.30776   0.13840   0.00000  Uiso   1.00
O1656  O     0.94829   0.30436   0.38621   0.00000  Uiso   1.00
O1657  O     0.95544   0.30176   0.05416   0.00000  Uiso   1.00
O1658  O     0.95710   0.37958   0.17840   0.00000  Uiso   1.00
O1659  O     0.77975   0.20192   0.38092   0.00000  Uiso   1.00
O1660  O     0.78398   0.20311   0.03510   0.00000  Uiso   1.00
O1661  O     0.94875   0.30533   0.80204   0.00000  Uiso   1.00
O1662  O     0.94566   0.37814   0.76439   0.00000  Uiso   1.00
O1663  O     0.77863   0.20438   0.88841   0.00000  Uiso   1.00
O1664  O     0.94924   0.37249   0.92554   0.00000  Uiso   1.00
O1665  O     0.95229   0.30309   0.63680   0.00000  Uiso   1.00
O1666  O     0.94902   0.30324   0.54988   0.00000  Uiso   1.00
O1667  O     0.78155   0.20416   0.80114   0.00000  Uiso   1.00
O1668  O     0.95036   0.38088   0.67941   0.00000  Uiso   1.00
O1669  O     0.95945   0.29853   0.88605   0.00000  Uiso   1.00
O1670  O     0.95129   0.37634   0.51532   0.00000  Uiso   1.00
O1671  O     0.77611   0.20776   0.62985   0.00000  Uiso   1.00
O1672  O     0.77560   0.21167   0.54149   0.00000  Uiso   1.00
O1673  O     0.77819   0.53667   0.05612   0.00000  Uiso   1.00
O1674  O     0.77878   0.53236   0.14134   0.00000  Uiso   1.00
O1675  O     0.77998   0.47415   0.17460   0.00000  Uiso   1.00
O1676  O     0.78436   0.47799   0.26231   0.00000  Uiso   1.00
O1677  O     0.78018   0.53626   0.38011   0.00000  Uiso   1.00
O1678  O     0.78512   0.53017   0.29285   0.00000  Uiso   1.00
O1679  O     0.78414   0.48049   0.42771   0.00000  Uiso   1.00
O1680  O     0.78537   0.48385   0.00838   0.00000  Uiso   1.00
O1681  O     0.77712   0.53079   0.88430   0.00000  Uiso   1.00
O1682  O     0.77547   0.47986   0.75910   0.00000  Uiso   1.00
O1683  O     0.77561   0.53485   0.79661   0.00000  Uiso   1.00
O1684  O     0.77947   0.47642   0.92251   0.00000  Uiso   1.00
O1685  O     0.77560   0.53465   0.64162   0.00000  Uiso   1.00
O1686  O     0.77669   0.48083   0.67088   0.00000  Uiso   1.00
O1687  O     0.78176   0.53402   0.55448   0.00000  Uiso   1.00
O1688  O     0.78473   0.47909   0.51545   0.00000  Uiso   1.00
O1689  O     0.94898   0.70406   0.01387   0.00000  Uiso   1.00
O1690  O     0.95420   0.71434   0.26060   0.00000  Uiso   1.00
O1691  O     0.95194   0.63767   0.38055   0.00000  Uiso   1.00
O1692  O     0.94581   0.64057   0.13705   0.00000  Uiso   1.00
O1693  O     0.95294   0.63027   0.05211   0.00000  Uiso   1.00
O1694  O     0.95765   0.71221   0.42447   0.00000  Uiso   1.00
O1695  O     0.94880   0.64282   0.29240   0.00000  Uiso   1.00
O1696  O     0.94927   0.70792   0.17549   0.00000  Uiso   1.00
O1697  O     0.95420   0.70518   0.66892   0.00000  Uiso   1.00
O1698  O     0.95051   0.70035   0.75452   0.00000  Uiso   1.00
O1699  O     0.94710   0.70326   0.92674   0.00000  Uiso   1.00
O1700  O     0.95437   0.62979   0.63844   0.00000  Uiso   1.00
O1701  O     0.94706   0.70651   0.50874   0.00000  Uiso   1.00
O1702  O     0.95238   0.63070   0.79629   0.00000  Uiso   1.00
O1703  O     0.95153   0.63122   0.88438   0.00000  Uiso   1.00
O1704  O     0.94823   0.63677   0.55155   0.00000  Uiso   1.00
O1705  O     0.78237   0.81470   0.17005   0.00000  Uiso   1.00
O1706  O     0.94629   0.97496   0.37894   0.00000  Uiso   1.00
O1707  O     0.77854   0.87208   0.29049   0.00000  Uiso   1.00
O1708  O     0.95442   0.97349   0.29327   0.00000  Uiso   1.00
O1709  O     0.78295   0.86926   0.12937   0.00000  Uiso   1.00
O1710  O     0.77947   0.80624   0.41407   0.00000  Uiso   1.00
O1711  O     0.95086   0.97535   0.13737   0.00000  Uiso   1.00
O1712  O     0.78142   0.87201   0.04132   0.00000  Uiso   1.00
O1713  O     0.95358   0.96995   0.05152   0.00000  Uiso   1.00
O1714  O     0.78435   0.86743   0.37558   0.00000  Uiso   1.00
O1715  O     0.78280   0.81343   0.25418   0.00000  Uiso   1.00
O1716  O     0.78256   0.81163   0.01026   0.00000  Uiso   1.00
O1717  O     0.78235   0.81194   0.92290   0.00000  Uiso   1.00
O1718  O     0.94536   0.97111   0.88406   0.00000  Uiso   1.00
O1719  O     0.78076   0.80473   0.50174   0.00000  Uiso   1.00
O1720  O     0.94662   0.96667   0.79724   0.00000  Uiso   1.00
O1721  O     0.77952   0.86446   0.62792   0.00000  Uiso   1.00
O1722  O     0.94684   0.96857   0.62943   0.00000  Uiso   1.00
O1723  O     0.78434   0.85797   0.79293   0.00000  Uiso   1.00
O1724  O     0.78053   0.86201   0.54065   0.00000  Uiso   1.00
O1725  O     0.95035   0.96837   0.54053   0.00000  Uiso   1.00
O1726  O     0.77948   0.86571   0.88201   0.00000  Uiso   1.00
O1727  O     0.77774   0.80500   0.67252   0.00000  Uiso   1.00
O1728  O     0.77620   0.80045   0.76080   0.00000  Uiso   1.00
O1729  O     0.22772   0.19401   0.21174   0.00000  Uiso   1.00
O1730  O     0.22219   0.14898   0.33799   0.00000  Uiso   1.00
O1731  O     0.22476   0.14921   0.09071   0.00000  Uiso   1.00
O1732  O     0.22450   0.19175   0.46281   0.00000  Uiso   1.00
O1733  O     0.22765   0.14964   0.83881   0.00000  Uiso   1.00
O1734  O     0.22548   0.19448   0.71172   0.00000  Uiso   1.00
O1735  O     0.22503   0.14659   0.58608   0.00000  Uiso   1.00
O1736  O     0.22292   0.19903   0.96156   0.00000  Uiso   1.00
O1737  O     0.22715   0.48030   0.33734   0.00000  Uiso   1.00
O1738  O     0.22686   0.52820   0.21395   0.00000  Uiso   1.00
O1739  O     0.22619   0.52564   0.46128   0.00000  Uiso   1.00
O1740  O     0.23319   0.48043   0.08503   0.00000  Uiso   1.00
O1741  O     0.22539   0.52722   0.71256   0.00000  Uiso   1.00
O1742  O     0.22697   0.52511   0.96249   0.00000  Uiso   1.00
O1743  O     0.22533   0.48127   0.58731   0.00000  Uiso   1.00
O1744  O     0.22605   0.47937   0.83637   0.00000  Uiso   1.00
O1745  O     0.22895   0.86159   0.46684   0.00000  Uiso   1.00
O1746  O     0.22828   0.81893   0.09692   0.00000  Uiso   1.00
O1747  O     0.22915   0.81759   0.34130   0.00000  Uiso   1.00
O1748  O     0.23261   0.86604   0.21708   0.00000  Uiso   1.00
O1749  O     0.22531   0.86389   0.71602   0.00000  Uiso   1.00
O1750  O     0.22808   0.81748   0.84180   0.00000  Uiso   1.00
O1751  O     0.23553   0.81773   0.59008   0.00000  Uiso   1.00
O1752  O     0.22710   0.86324   0.96837   0.00000  Uiso   1.00
O1753  O     0.48126   0.03160   0.09215   0.00000  Uiso   1.00
O1754  O     0.47540   0.02982   0.33884   0.00000  Uiso   1.00
O1755  O     0.47778   0.03084   0.83618   0.00000  Uiso   1.00
O1756  O     0.47975   0.02981   0.58879   0.00000  Uiso   1.00
O1757  O     0.47943   0.31472   0.45993   0.00000  Uiso   1.00
O1758  O     0.47611   0.31447   0.21058   0.00000  Uiso   1.00
O1759  O     0.47709   0.36217   0.08725   0.00000  Uiso   1.00
O1760  O     0.48090   0.36067   0.33669   0.00000  Uiso   1.00
O1761  O     0.46926   0.31953   0.70888   0.00000  Uiso   1.00
O1762  O     0.47109   0.36172   0.58556   0.00000  Uiso   1.00
O1763  O     0.47774   0.36386   0.83638   0.00000  Uiso   1.00
O1764  O     0.47498   0.31941   0.96194   0.00000  Uiso   1.00
O1765  O     0.46944   0.64854   0.46643   0.00000  Uiso   1.00
O1766  O     0.47329   0.69599   0.09379   0.00000  Uiso   1.00
O1767  O     0.47738   0.69480   0.34224   0.00000  Uiso   1.00
O1768  O     0.47973   0.64527   0.21807   0.00000  Uiso   1.00
O1769  O     0.46853   0.65273   0.96844   0.00000  Uiso   1.00
O1770  O     0.47395   0.69011   0.59345   0.00000  Uiso   1.00
O1771  O     0.47666   0.69834   0.84113   0.00000  Uiso   1.00
O1772  O     0.47869   0.65062   0.71898   0.00000  Uiso   1.00
O1773  O     0.47123   0.98615   0.46300   0.00000  Uiso   1.00
O1774  O     0.47866   0.98266   0.21570   0.00000  Uiso   1.00
O1775  O     0.47735   0.98784   0.96456   0.00000  Uiso   1.00
O1776  O     0.48822   0.98197   0.70986   0.00000  Uiso   1.00
O1777  O     0.73288   0.15068   0.33577   0.00000  Uiso   1.00
O1778  O     0.72605   0.15168   0.08568   0.00000  Uiso   1.00
O1779  O     0.73535   0.19628   0.20804   0.00000  Uiso   1.00
O1780  O     0.72499   0.19995   0.45899   0.00000  Uiso   1.00
O1781  O     0.72901   0.15059   0.83935   0.00000  Uiso   1.00
O1782  O     0.73010   0.15358   0.58513   0.00000  Uiso   1.00
O1783  O     0.72867   0.19822   0.71457   0.00000  Uiso   1.00
O1784  O     0.72194   0.19543   0.96544   0.00000  Uiso   1.00
O1785  O     0.73336   0.53092   0.46799   0.00000  Uiso   1.00
O1786  O     0.72980   0.48292   0.34493   0.00000  Uiso   1.00
O1787  O     0.72398   0.48295   0.09167   0.00000  Uiso   1.00
O1788  O     0.72589   0.52560   0.21662   0.00000  Uiso   1.00
O1789  O     0.72987   0.52696   0.96631   0.00000  Uiso   1.00
O1790  O     0.71933   0.48414   0.84134   0.00000  Uiso   1.00
O1791  O     0.71942   0.48412   0.59314   0.00000  Uiso   1.00
O1792  O     0.71862   0.53100   0.71641   0.00000  Uiso   1.00
O1793  O     0.72782   0.86262   0.21198   0.00000  Uiso   1.00
O1794  O     0.73082   0.81485   0.08880   0.00000  Uiso   1.00
O1795  O     0.73068   0.86116   0.45938   0.00000  Uiso   1.00
O1796  O     0.72810   0.81514   0.33332   0.00000  Uiso   1.00
O1797  O     0.72783   0.81342   0.58556   0.00000  Uiso   1.00
O1798  O     0.72943   0.85812   0.71144   0.00000  Uiso   1.00
O1799  O     0.72387   0.86079   0.96406   0.00000  Uiso   1.00
O1800  O     0.72594   0.81462   0.84040   0.00000  Uiso   1.00
O1801  O     0.98353   0.03006   0.08767   0.00000  Uiso   1.00
O1802  O     0.97809   0.03194   0.33941   0.00000  Uiso   1.00
O1803  O     0.97314   0.02900   0.83942   0.00000  Uiso   1.00
O1804  O     0.97427   0.02784   0.58839   0.00000  Uiso   1.00
O1805  O     0.98013   0.31738   0.22127   0.00000  Uiso   1.00
O1806  O     0.97460   0.31792   0.47169   0.00000  Uiso   1.00
O1807  O     0.97646   0.36544   0.09584   0.00000  Uiso   1.00
O1808  O     0.98212   0.36369   0.34853   0.00000  Uiso   1.00
O1809  O     0.97754   0.36682   0.84774   0.00000  Uiso   1.00
O1810  O     0.97622   0.31956   0.72031   0.00000  Uiso   1.00
O1811  O     0.97141   0.36313   0.59402   0.00000  Uiso   1.00
O1812  O     0.97992   0.31754   0.97139   0.00000  Uiso   1.00
O1813  O     0.97788   0.69817   0.34133   0.00000  Uiso   1.00
O1814  O     0.97853   0.69320   0.08973   0.00000  Uiso   1.00
O1815  O     0.97500   0.64943   0.46514   0.00000  Uiso   1.00
O1816  O     0.98086   0.64970   0.21969   0.00000  Uiso   1.00
O1817  O     0.98393   0.64657   0.71501   0.00000  Uiso   1.00
O1818  O     0.97674   0.69403   0.59417   0.00000  Uiso   1.00
O1819  O     0.97776   0.64524   0.96562   0.00000  Uiso   1.00
O1820  O     0.97399   0.69052   0.83859   0.00000  Uiso   1.00
O1821  O     0.98226   0.98654   0.21433   0.00000  Uiso   1.00
O1822  O     0.97353   0.98355   0.46401   0.00000  Uiso   1.00
O1823  O     0.97280   0.98204   0.71507   0.00000  Uiso   1.00
O1824  O     0.97464   0.98219   0.96631   0.00000  Uiso   1.00
