data_final_I-Al-SABVOH01
_audit_creation_date              2022-12-15
_audit_creation_method            'Materials Studio'
_symmetry_space_group_name_H-M    'P1'
_symmetry_Int_Tables_number       1
_symmetry_cell_setting            triclinic
loop_
_symmetry_equiv_pos_as_xyz
  x,y,z
_cell_length_a                    33.8438
_cell_length_b                    36.5761
_cell_length_c                    26.1873
_cell_angle_alpha                 90.0000
_cell_angle_beta                  90.0000
_cell_angle_gamma                 90.0000
loop_
_atom_site_label
_atom_site_type_symbol
_atom_site_fract_x
_atom_site_fract_y
_atom_site_fract_z
_atom_site_U_iso_or_equiv
_atom_site_adp_type
_atom_site_occupancy
Al1    Al    0.24667   0.16353   0.00712   0.00000  Uiso   1.00
Al2    Al    0.24541   0.16983   0.13136   0.00000  Uiso   1.00
Al3    Al    0.24685   0.16036   0.25809   0.00000  Uiso   1.00
Al4    Al    0.24677   0.17371   0.38119   0.00000  Uiso   1.00
Al5    Al    0.00079   0.00138   0.26406   0.00000  Uiso   1.00
Al6    Al    0.24542   0.17131   0.63205   0.00000  Uiso   1.00
Al7    Al    0.24795   0.16433   0.50647   0.00000  Uiso   1.00
Al8    Al    0.24671   0.16614   0.75709   0.00000  Uiso   1.00
Al9    Al    0.24857   0.17225   0.88218   0.00000  Uiso   1.00
Al10   Al    0.00516   0.33215   0.38260   0.00000  Uiso   1.00
Al11   Al    0.00184   0.32820   0.13415   0.00000  Uiso   1.00
Al12   Al    0.00182   0.33865   0.01231   0.00000  Uiso   1.00
Al13   Al    0.24971   0.49627   0.01049   0.00000  Uiso   1.00
Al14   Al    0.24890   0.50787   0.13514   0.00000  Uiso   1.00
Al15   Al    0.00252   0.66560   0.14026   0.00000  Uiso   1.00
Al16   Al    0.00020   0.66874   0.01386   0.00000  Uiso   1.00
Al17   Al    0.00048   0.67044   0.26597   0.00000  Uiso   1.00
Al18   Al    0.00091   0.66392   0.38965   0.00000  Uiso   1.00
Al19   Al    0.00055   0.66517   0.89134   0.00000  Uiso   1.00
Al20   Al    0.00004   0.66493   0.51575   0.00000  Uiso   1.00
Al21   Al    0.00157   0.99279   0.13878   0.00000  Uiso   1.00
Al22   Al    0.24769   0.83356   0.00885   0.00000  Uiso   1.00
Al23   Al    0.00225   0.99189   0.38727   0.00000  Uiso   1.00
Al24   Al    0.24964   0.83926   0.88526   0.00000  Uiso   1.00
Al25   Al    0.49514   0.00536   0.01110   0.00000  Uiso   1.00
Al26   Al    0.49795   0.00923   0.26295   0.00000  Uiso   1.00
Al27   Al    0.49837   0.00156   0.13835   0.00000  Uiso   1.00
Al28   Al    0.49927   0.00295   0.51026   0.00000  Uiso   1.00
Al29   Al    0.49703   0.00698   0.76204   0.00000  Uiso   1.00
Al30   Al    0.49566   0.00412   0.88948   0.00000  Uiso   1.00
Al31   Al    0.49779   0.33793   0.00931   0.00000  Uiso   1.00
Al32   Al    0.49871   0.33018   0.13248   0.00000  Uiso   1.00
Al33   Al    0.49960   0.32997   0.38105   0.00000  Uiso   1.00
Al34   Al    0.49835   0.33609   0.50831   0.00000  Uiso   1.00
Al35   Al    0.25212   0.50340   0.38670   0.00000  Uiso   1.00
Al36   Al    0.25212   0.49961   0.25969   0.00000  Uiso   1.00
Al37   Al    0.25027   0.50408   0.88545   0.00000  Uiso   1.00
Al38   Al    0.25344   0.49673   0.51196   0.00000  Uiso   1.00
Al39   Al    0.25374   0.49644   0.75989   0.00000  Uiso   1.00
Al40   Al    0.25275   0.50293   0.63348   0.00000  Uiso   1.00
Al41   Al    0.49839   0.66690   0.12950   0.00000  Uiso   1.00
Al42   Al    0.49416   0.67244   0.00403   0.00000  Uiso   1.00
Al43   Al    0.49769   0.67334   0.75739   0.00000  Uiso   1.00
Al44   Al    0.49986   0.66159   0.63293   0.00000  Uiso   1.00
Al45   Al    0.49693   0.66278   0.88067   0.00000  Uiso   1.00
Al46   Al    0.25152   0.83980   0.13687   0.00000  Uiso   1.00
Al47   Al    0.25355   0.83820   0.38752   0.00000  Uiso   1.00
Al48   Al    0.25274   0.83212   0.26469   0.00000  Uiso   1.00
Al49   Al    0.49778   0.99991   0.38568   0.00000  Uiso   1.00
Al50   Al    0.25175   0.83213   0.76140   0.00000  Uiso   1.00
Al51   Al    0.25171   0.83595   0.63633   0.00000  Uiso   1.00
Al52   Al    0.49890   0.99699   0.63578   0.00000  Uiso   1.00
Al53   Al    0.25050   0.83120   0.51422   0.00000  Uiso   1.00
Al54   Al    0.50025   0.33706   0.25748   0.00000  Uiso   1.00
Al55   Al    0.50127   0.33046   0.63735   0.00000  Uiso   1.00
Al56   Al    0.50017   0.33512   0.76343   0.00000  Uiso   1.00
Al57   Al    0.50169   0.32861   0.88699   0.00000  Uiso   1.00
Al58   Al    0.74720   0.49661   0.25901   0.00000  Uiso   1.00
Al59   Al    0.74752   0.50539   0.38332   0.00000  Uiso   1.00
Al60   Al    0.74743   0.50270   0.63679   0.00000  Uiso   1.00
Al61   Al    0.74808   0.49826   0.51208   0.00000  Uiso   1.00
Al62   Al    0.50098   0.67077   0.25764   0.00000  Uiso   1.00
Al63   Al    0.50073   0.66455   0.38440   0.00000  Uiso   1.00
Al64   Al    0.50034   0.67168   0.50965   0.00000  Uiso   1.00
Al65   Al    0.74798   0.83041   0.00644   0.00000  Uiso   1.00
Al66   Al    0.74835   0.83507   0.13461   0.00000  Uiso   1.00
Al67   Al    0.74929   0.82894   0.25927   0.00000  Uiso   1.00
Al68   Al    0.74856   0.83072   0.38533   0.00000  Uiso   1.00
Al69   Al    0.74721   0.82626   0.51259   0.00000  Uiso   1.00
Al70   Al    0.74763   0.82869   0.76218   0.00000  Uiso   1.00
Al71   Al    0.74770   0.83213   0.63753   0.00000  Uiso   1.00
Al72   Al    0.74491   0.83791   0.88526   0.00000  Uiso   1.00
Al73   Al    0.75074   0.16777   0.26352   0.00000  Uiso   1.00
Al74   Al    0.75198   0.16471   0.01288   0.00000  Uiso   1.00
Al75   Al    0.75087   0.16996   0.13615   0.00000  Uiso   1.00
Al76   Al    0.75279   0.16890   0.38981   0.00000  Uiso   1.00
Al77   Al    0.75042   0.16615   0.76491   0.00000  Uiso   1.00
Al78   Al    0.75290   0.17042   0.63890   0.00000  Uiso   1.00
Al79   Al    0.75292   0.16885   0.88850   0.00000  Uiso   1.00
Al80   Al    0.99897   0.00028   0.76228   0.00000  Uiso   1.00
Al81   Al    0.75226   0.16594   0.51388   0.00000  Uiso   1.00
Al82   Al    0.99985   0.33494   0.25818   0.00000  Uiso   1.00
Al83   Al    0.99997   0.33712   0.76041   0.00000  Uiso   1.00
Al84   Al    0.99922   0.33633   0.51220   0.00000  Uiso   1.00
Al85   Al    0.99857   0.33196   0.63634   0.00000  Uiso   1.00
Al86   Al    0.99988   0.32919   0.88477   0.00000  Uiso   1.00
Al87   Al    0.75128   0.49967   0.13333   0.00000  Uiso   1.00
Al88   Al    0.75052   0.49335   0.01092   0.00000  Uiso   1.00
Al89   Al    0.75053   0.49246   0.76049   0.00000  Uiso   1.00
Al90   Al    0.75083   0.50162   0.88492   0.00000  Uiso   1.00
Al91   Al    0.99899   0.67116   0.76516   0.00000  Uiso   1.00
Al92   Al    0.99998   0.66124   0.64179   0.00000  Uiso   1.00
Al93   Al    0.99853   0.99914   0.01517   0.00000  Uiso   1.00
Al94   Al    0.99995   0.99517   0.63795   0.00000  Uiso   1.00
Al95   Al    0.99988   0.99777   0.88796   0.00000  Uiso   1.00
Al96   Al    0.99962   0.99747   0.51168   0.00000  Uiso   1.00
I97    I     0.13127   0.00455   0.23037   0.00000  Uiso   1.00
I98    I     0.12725   0.17651   0.09770   0.00000  Uiso   1.00
I99    I     0.11786   0.17271   0.35186   0.00000  Uiso   1.00
I100   I     0.12512   0.18313   0.84807   0.00000  Uiso   1.00
I101   I     0.12248   0.01148   0.71826   0.00000  Uiso   1.00
I102   I     0.12296   0.18039   0.59187   0.00000  Uiso   1.00
I103   I     0.12542   0.00396   0.97094   0.00000  Uiso   1.00
I104   I     0.13084   0.33579   0.22411   0.00000  Uiso   1.00
I105   I     0.12914   0.34364   0.47101   0.00000  Uiso   1.00
I106   I     0.13241   0.33702   0.72298   0.00000  Uiso   1.00
I107   I     0.12818   0.34650   0.96898   0.00000  Uiso   1.00
I108   I     0.11774   0.50187   0.10487   0.00000  Uiso   1.00
I109   I     0.12829   0.50940   0.34787   0.00000  Uiso   1.00
I110   I     0.12213   0.50756   0.60866   0.00000  Uiso   1.00
I111   I     0.12168   0.50560   0.84801   0.00000  Uiso   1.00
I112   I     0.12521   0.68104   0.22568   0.00000  Uiso   1.00
I113   I     0.12480   0.66729   0.47551   0.00000  Uiso   1.00
I114   I     0.11551   0.67451   0.72515   0.00000  Uiso   1.00
I115   I     0.12425   0.67741   0.97984   0.00000  Uiso   1.00
I116   I     0.12587   0.84494   0.10169   0.00000  Uiso   1.00
I117   I     0.13173   0.84123   0.34228   0.00000  Uiso   1.00
I118   I     0.12389   0.99865   0.47969   0.00000  Uiso   1.00
I119   I     0.12630   0.83717   0.60614   0.00000  Uiso   1.00
I120   I     0.12162   0.84391   0.84142   0.00000  Uiso   1.00
I121   I     0.37916   0.15670   0.21552   0.00000  Uiso   1.00
I122   I     0.36927   0.16189   0.47590   0.00000  Uiso   1.00
I123   I     0.37221   0.15537   0.70916   0.00000  Uiso   1.00
I124   I     0.37712   0.16081   0.96941   0.00000  Uiso   1.00
I125   I     0.37172   0.32166   0.09637   0.00000  Uiso   1.00
I126   I     0.38102   0.31847   0.33900   0.00000  Uiso   1.00
I127   I     0.37214   0.33067   0.60923   0.00000  Uiso   1.00
I128   I     0.37846   0.31758   0.84268   0.00000  Uiso   1.00
I129   I     0.38179   0.49656   0.22194   0.00000  Uiso   1.00
I130   I     0.37315   0.47808   0.46703   0.00000  Uiso   1.00
I131   I     0.37857   0.48908   0.72550   0.00000  Uiso   1.00
I132   I     0.37496   0.49190   0.97056   0.00000  Uiso   1.00
I133   I     0.37776   0.65588   0.09244   0.00000  Uiso   1.00
I134   I     0.37664   0.66503   0.35261   0.00000  Uiso   1.00
I135   I     0.37628   0.64579   0.58765   0.00000  Uiso   1.00
I136   I     0.36851   0.65919   0.84643   0.00000  Uiso   1.00
I137   I     0.38075   0.82650   0.22168   0.00000  Uiso   1.00
I138   I     0.38092   0.98804   0.09521   0.00000  Uiso   1.00
I139   I     0.37246   0.82259   0.47499   0.00000  Uiso   1.00
I140   I     0.37056   0.99760   0.36393   0.00000  Uiso   1.00
I141   I     0.37419   0.98998   0.59196   0.00000  Uiso   1.00
I142   I     0.37097   0.99953   0.85011   0.00000  Uiso   1.00
I143   I     0.37110   0.82783   0.97409   0.00000  Uiso   1.00
I144   I     0.38187   0.83325   0.73431   0.00000  Uiso   1.00
I145   I     0.63392   0.00380   0.48240   0.00000  Uiso   1.00
I146   I     0.62837   0.00966   0.22403   0.00000  Uiso   1.00
I147   I     0.62548   0.17488   0.09847   0.00000  Uiso   1.00
I148   I     0.62143   0.17339   0.35234   0.00000  Uiso   1.00
I149   I     0.62394   0.18479   0.84656   0.00000  Uiso   1.00
I150   I     0.62550   0.01128   0.72557   0.00000  Uiso   1.00
I151   I     0.62417   0.01819   0.96395   0.00000  Uiso   1.00
I152   I     0.61883   0.17288   0.60075   0.00000  Uiso   1.00
I153   I     0.62808   0.34406   0.21165   0.00000  Uiso   1.00
I154   I     0.62886   0.34120   0.47003   0.00000  Uiso   1.00
I155   I     0.62615   0.34706   0.71761   0.00000  Uiso   1.00
I156   I     0.62371   0.33915   0.97310   0.00000  Uiso   1.00
I157   I     0.62398   0.50988   0.10060   0.00000  Uiso   1.00
I158   I     0.62708   0.51622   0.34777   0.00000  Uiso   1.00
I159   I     0.62991   0.51335   0.60232   0.00000  Uiso   1.00
I160   I     0.62462   0.50446   0.84690   0.00000  Uiso   1.00
I161   I     0.62230   0.67444   0.21209   0.00000  Uiso   1.00
I162   I     0.62317   0.67279   0.47202   0.00000  Uiso   1.00
I163   I     0.62461   0.67556   0.72641   0.00000  Uiso   1.00
I164   I     0.62987   0.67701   0.96665   0.00000  Uiso   1.00
I165   I     0.62415   0.85054   0.09464   0.00000  Uiso   1.00
I166   I     0.62444   0.83993   0.34728   0.00000  Uiso   1.00
I167   I     0.62381   0.84090   0.60648   0.00000  Uiso   1.00
I168   I     0.62112   0.84460   0.85144   0.00000  Uiso   1.00
I169   I     0.87499   0.16144   0.23088   0.00000  Uiso   1.00
I170   I     0.86993   0.14785   0.46827   0.00000  Uiso   1.00
I171   I     0.87635   0.15728   0.72425   0.00000  Uiso   1.00
I172   I     0.87149   0.15164   0.97659   0.00000  Uiso   1.00
I173   I     0.87307   0.32277   0.08970   0.00000  Uiso   1.00
I174   I     0.88151   0.32444   0.34793   0.00000  Uiso   1.00
I175   I     0.87419   0.32196   0.58848   0.00000  Uiso   1.00
I176   I     0.87731   0.32941   0.85212   0.00000  Uiso   1.00
I177   I     0.87592   0.48646   0.21995   0.00000  Uiso   1.00
I178   I     0.87154   0.48972   0.47359   0.00000  Uiso   1.00
I179   I     0.87932   0.49592   0.72214   0.00000  Uiso   1.00
I180   I     0.87816   0.49734   0.98577   0.00000  Uiso   1.00
I181   I     0.86958   0.65846   0.10165   0.00000  Uiso   1.00
I182   I     0.87445   0.66046   0.35179   0.00000  Uiso   1.00
I183   I     0.87670   0.65408   0.59923   0.00000  Uiso   1.00
I184   I     0.87562   0.65441   0.84784   0.00000  Uiso   1.00
I185   I     0.87537   0.98372   0.34664   0.00000  Uiso   1.00
I186   I     0.87261   0.81754   0.47532   0.00000  Uiso   1.00
I187   I     0.87861   0.82302   0.21972   0.00000  Uiso   1.00
I188   I     0.87543   0.98521   0.09883   0.00000  Uiso   1.00
I189   I     0.87428   0.98768   0.59682   0.00000  Uiso   1.00
I190   I     0.88182   0.82615   0.72859   0.00000  Uiso   1.00
I191   I     0.87680   0.99061   0.84510   0.00000  Uiso   1.00
I192   I     0.87573   0.82340   0.97011   0.00000  Uiso   1.00
H193   H     0.03011   0.03810   0.19670   0.00000  Uiso   1.00
H194   H     0.09395   0.06555   0.15328   0.00000  Uiso   1.00
H195   H     0.15468   0.09979   0.15330   0.00000  Uiso   1.00
H196   H     0.09763   0.07091   0.40903   0.00000  Uiso   1.00
H197   H     0.16071   0.10151   0.40823   0.00000  Uiso   1.00
H198   H     0.19227   0.05637   0.26652   0.00000  Uiso   1.00
H199   H     0.02323   0.04137   0.44637   0.00000  Uiso   1.00
H200   H     0.18110   0.05688   0.00170   0.00000  Uiso   1.00
H201   H     0.08830   0.07536   0.64684   0.00000  Uiso   1.00
H202   H     0.15081   0.10748   0.65301   0.00000  Uiso   1.00
H203   H     0.09041   0.08230   0.89366   0.00000  Uiso   1.00
H204   H     0.15508   0.10767   0.89627   0.00000  Uiso   1.00
H205   H     0.18363   0.06675   0.74704   0.00000  Uiso   1.00
H206   H     0.18546   0.05950   0.50438   0.00000  Uiso   1.00
H207   H     0.01355   0.04460   0.95342   0.00000  Uiso   1.00
H208   H     0.06126   0.22394   0.13191   0.00000  Uiso   1.00
H209   H     0.10095   0.27591   0.02963   0.00000  Uiso   1.00
H210   H     0.06244   0.23031   0.38456   0.00000  Uiso   1.00
H211   H     0.15157   0.23178   0.27923   0.00000  Uiso   1.00
H212   H     0.08777   0.26357   0.28301   0.00000  Uiso   1.00
H213   H     0.16144   0.24439   0.02422   0.00000  Uiso   1.00
H214   H     0.19269   0.39557   0.25546   0.00000  Uiso   1.00
H215   H     0.24046   0.21293   0.06028   0.00000  Uiso   1.00
H216   H     0.01380   0.37638   0.19122   0.00000  Uiso   1.00
H217   H     0.10124   0.39313   0.15343   0.00000  Uiso   1.00
H218   H     0.23678   0.21554   0.30983   0.00000  Uiso   1.00
H219   H     0.00561   0.38201   0.44121   0.00000  Uiso   1.00
H220   H     0.06080   0.22509   0.62909   0.00000  Uiso   1.00
H221   H     0.09619   0.27263   0.53272   0.00000  Uiso   1.00
H222   H     0.16247   0.24246   0.52359   0.00000  Uiso   1.00
H223   H     0.06639   0.23700   0.88134   0.00000  Uiso   1.00
H224   H     0.15129   0.23782   0.77390   0.00000  Uiso   1.00
H225   H     0.09128   0.27143   0.77608   0.00000  Uiso   1.00
H226   H     0.24103   0.21688   0.81953   0.00000  Uiso   1.00
H227   H     0.00637   0.38080   0.69342   0.00000  Uiso   1.00
H228   H     0.18930   0.39363   0.75400   0.00000  Uiso   1.00
H229   H     0.00359   0.38081   0.94878   0.00000  Uiso   1.00
H230   H     0.18826   0.39744   0.50590   0.00000  Uiso   1.00
H231   H     0.05632   0.55956   0.13855   0.00000  Uiso   1.00
H232   H     0.16361   0.42583   0.16117   0.00000  Uiso   1.00
H233   H     0.21876   0.53799   0.06393   0.00000  Uiso   1.00
H234   H     0.06565   0.56329   0.38019   0.00000  Uiso   1.00
H235   H     0.15860   0.44030   0.39367   0.00000  Uiso   1.00
H236   H     0.15800   0.57411   0.27127   0.00000  Uiso   1.00
H237   H     0.09485   0.41112   0.39271   0.00000  Uiso   1.00
H238   H     0.15837   0.56678   0.02581   0.00000  Uiso   1.00
H239   H     0.22357   0.53877   0.32001   0.00000  Uiso   1.00
H240   H     0.18319   0.40321   0.00364   0.00000  Uiso   1.00
H241   H     0.24675   0.45481   0.44826   0.00000  Uiso   1.00
H242   H     0.06463   0.56021   0.63899   0.00000  Uiso   1.00
H243   H     0.16329   0.42993   0.66008   0.00000  Uiso   1.00
H244   H     0.15354   0.56713   0.52903   0.00000  Uiso   1.00
H245   H     0.06407   0.56486   0.87733   0.00000  Uiso   1.00
H246   H     0.15903   0.43632   0.90011   0.00000  Uiso   1.00
H247   H     0.15593   0.56846   0.78388   0.00000  Uiso   1.00
H248   H     0.22939   0.53872   0.81807   0.00000  Uiso   1.00
H249   H     0.09420   0.40120   0.89511   0.00000  Uiso   1.00
H250   H     0.08947   0.59423   0.53376   0.00000  Uiso   1.00
H251   H     0.23671   0.54658   0.56842   0.00000  Uiso   1.00
H252   H     0.09706   0.40235   0.65414   0.00000  Uiso   1.00
H253   H     0.08796   0.74981   0.15144   0.00000  Uiso   1.00
H254   H     0.15359   0.77675   0.15850   0.00000  Uiso   1.00
H255   H     0.00537   0.71223   0.44867   0.00000  Uiso   1.00
H256   H     0.18182   0.73208   0.00661   0.00000  Uiso   1.00
H257   H     0.09605   0.73247   0.40940   0.00000  Uiso   1.00
H258   H     0.15698   0.76853   0.41326   0.00000  Uiso   1.00
H259   H     0.18391   0.73587   0.25653   0.00000  Uiso   1.00
H260   H     0.10130   0.60903   0.27567   0.00000  Uiso   1.00
H261   H     0.09803   0.60190   0.03321   0.00000  Uiso   1.00
H262   H     0.09679   0.73157   0.65475   0.00000  Uiso   1.00
H263   H     0.15479   0.76389   0.65649   0.00000  Uiso   1.00
H264   H     0.09118   0.74356   0.90342   0.00000  Uiso   1.00
H265   H     0.15300   0.77578   0.90197   0.00000  Uiso   1.00
H266   H     0.17782   0.73458   0.74798   0.00000  Uiso   1.00
H267   H     0.00443   0.71504   0.94956   0.00000  Uiso   1.00
H268   H     0.18567   0.73117   0.50352   0.00000  Uiso   1.00
H269   H     0.24879   0.79177   0.94332   0.00000  Uiso   1.00
H270   H     0.00322   0.71337   0.69536   0.00000  Uiso   1.00
H271   H     0.09640   0.60178   0.79415   0.00000  Uiso   1.00
H272   H     0.06346   0.89223   0.13753   0.00000  Uiso   1.00
H273   H     0.15702   0.90410   0.02369   0.00000  Uiso   1.00
H274   H     0.09542   0.93784   0.02938   0.00000  Uiso   1.00
H275   H     0.06263   0.88546   0.38505   0.00000  Uiso   1.00
H276   H     0.16135   0.91243   0.27052   0.00000  Uiso   1.00
H277   H     0.09106   0.92965   0.28922   0.00000  Uiso   1.00
H278   H     0.22493   0.87500   0.06877   0.00000  Uiso   1.00
H279   H     0.22732   0.87915   0.32277   0.00000  Uiso   1.00
H280   H     0.06107   0.88928   0.64014   0.00000  Uiso   1.00
H281   H     0.08680   0.92622   0.53157   0.00000  Uiso   1.00
H282   H     0.23819   0.88083   0.81790   0.00000  Uiso   1.00
H283   H     0.05792   0.89267   0.88324   0.00000  Uiso   1.00
H284   H     0.15980   0.91341   0.76997   0.00000  Uiso   1.00
H285   H     0.09758   0.94235   0.77937   0.00000  Uiso   1.00
H286   H     0.15302   0.89514   0.52828   0.00000  Uiso   1.00
H287   H     0.22537   0.87127   0.57440   0.00000  Uiso   1.00
H288   H     0.33740   0.09706   0.14227   0.00000  Uiso   1.00
H289   H     0.40247   0.06951   0.15397   0.00000  Uiso   1.00
H290   H     0.27781   0.13080   0.43846   0.00000  Uiso   1.00
H291   H     0.44142   0.11259   0.26488   0.00000  Uiso   1.00
H292   H     0.33739   0.10135   0.39244   0.00000  Uiso   1.00
H293   H     0.40451   0.07184   0.40626   0.00000  Uiso   1.00
H294   H     0.43951   0.10503   0.00858   0.00000  Uiso   1.00
H295   H     0.27062   0.12540   0.18766   0.00000  Uiso   1.00
H296   H     0.25737   0.12246   0.68850   0.00000  Uiso   1.00
H297   H     0.34175   0.09558   0.64997   0.00000  Uiso   1.00
H298   H     0.40293   0.06630   0.65300   0.00000  Uiso   1.00
H299   H     0.43531   0.10580   0.74843   0.00000  Uiso   1.00
H300   H     0.34669   0.10837   0.89705   0.00000  Uiso   1.00
H301   H     0.40995   0.07821   0.90438   0.00000  Uiso   1.00
H302   H     0.26205   0.12098   0.94029   0.00000  Uiso   1.00
H303   H     0.43129   0.10104   0.50037   0.00000  Uiso   1.00
H304   H     0.41049   0.26034   0.02550   0.00000  Uiso   1.00
H305   H     0.34584   0.23074   0.03216   0.00000  Uiso   1.00
H306   H     0.30792   0.26733   0.13026   0.00000  Uiso   1.00
H307   H     0.40776   0.25165   0.26845   0.00000  Uiso   1.00
H308   H     0.34396   0.22774   0.27771   0.00000  Uiso   1.00
H309   H     0.31212   0.26977   0.37438   0.00000  Uiso   1.00
H310   H     0.49354   0.28682   0.06485   0.00000  Uiso   1.00
H311   H     0.40598   0.39183   0.39698   0.00000  Uiso   1.00
H312   H     0.40325   0.39119   0.14821   0.00000  Uiso   1.00
H313   H     0.33835   0.23768   0.52616   0.00000  Uiso   1.00
H314   H     0.30907   0.27354   0.63240   0.00000  Uiso   1.00
H315   H     0.40754   0.25933   0.77555   0.00000  Uiso   1.00
H316   H     0.34224   0.22507   0.77643   0.00000  Uiso   1.00
H317   H     0.31579   0.26691   0.88010   0.00000  Uiso   1.00
H318   H     0.40270   0.26286   0.52205   0.00000  Uiso   1.00
H319   H     0.48682   0.28591   0.56872   0.00000  Uiso   1.00
H320   H     0.40113   0.38968   0.91077   0.00000  Uiso   1.00
H321   H     0.25525   0.20923   0.56313   0.00000  Uiso   1.00
H322   H     0.49633   0.28092   0.82226   0.00000  Uiso   1.00
H323   H     0.34344   0.56299   0.03124   0.00000  Uiso   1.00
H324   H     0.33867   0.42445   0.14648   0.00000  Uiso   1.00
H325   H     0.43951   0.44372   0.25885   0.00000  Uiso   1.00
H326   H     0.33904   0.57199   0.28088   0.00000  Uiso   1.00
H327   H     0.27648   0.46051   0.19430   0.00000  Uiso   1.00
H328   H     0.33876   0.41708   0.39079   0.00000  Uiso   1.00
H329   H     0.40461   0.59421   0.02032   0.00000  Uiso   1.00
H330   H     0.43838   0.44607   0.01171   0.00000  Uiso   1.00
H331   H     0.25696   0.45177   0.68949   0.00000  Uiso   1.00
H332   H     0.35526   0.55244   0.51901   0.00000  Uiso   1.00
H333   H     0.34400   0.42574   0.64910   0.00000  Uiso   1.00
H334   H     0.43828   0.43193   0.76033   0.00000  Uiso   1.00
H335   H     0.34186   0.56978   0.78030   0.00000  Uiso   1.00
H336   H     0.34335   0.42879   0.90355   0.00000  Uiso   1.00
H337   H     0.41687   0.40721   0.66324   0.00000  Uiso   1.00
H338   H     0.41523   0.58391   0.51229   0.00000  Uiso   1.00
H339   H     0.43725   0.43501   0.50683   0.00000  Uiso   1.00
H340   H     0.25062   0.45341   0.95056   0.00000  Uiso   1.00
H341   H     0.25843   0.78912   0.19651   0.00000  Uiso   1.00
H342   H     0.34104   0.75972   0.14667   0.00000  Uiso   1.00
H343   H     0.40420   0.73030   0.15121   0.00000  Uiso   1.00
H344   H     0.47337   0.62518   0.06437   0.00000  Uiso   1.00
H345   H     0.44500   0.77750   0.25925   0.00000  Uiso   1.00
H346   H     0.34829   0.76198   0.40065   0.00000  Uiso   1.00
H347   H     0.41169   0.73478   0.40711   0.00000  Uiso   1.00
H348   H     0.40329   0.60058   0.27851   0.00000  Uiso   1.00
H349   H     0.31902   0.60209   0.12346   0.00000  Uiso   1.00
H350   H     0.43242   0.77318   0.00263   0.00000  Uiso   1.00
H351   H     0.49658   0.62370   0.32317   0.00000  Uiso   1.00
H352   H     0.31628   0.60600   0.38298   0.00000  Uiso   1.00
H353   H     0.25837   0.78657   0.44611   0.00000  Uiso   1.00
H354   H     0.34042   0.76155   0.65452   0.00000  Uiso   1.00
H355   H     0.40668   0.73055   0.65683   0.00000  Uiso   1.00
H356   H     0.43765   0.77481   0.75766   0.00000  Uiso   1.00
H357   H     0.34808   0.76746   0.90483   0.00000  Uiso   1.00
H358   H     0.40506   0.73163   0.90590   0.00000  Uiso   1.00
H359   H     0.49159   0.61940   0.81083   0.00000  Uiso   1.00
H360   H     0.48564   0.61851   0.56933   0.00000  Uiso   1.00
H361   H     0.31400   0.60153   0.62867   0.00000  Uiso   1.00
H362   H     0.26342   0.78945   0.69805   0.00000  Uiso   1.00
H363   H     0.43618   0.77416   0.51230   0.00000  Uiso   1.00
H364   H     0.40457   0.60217   0.77724   0.00000  Uiso   1.00
H365   H     0.30626   0.60754   0.88286   0.00000  Uiso   1.00
H366   H     0.40487   0.92705   0.02311   0.00000  Uiso   1.00
H367   H     0.33966   0.89438   0.02143   0.00000  Uiso   1.00
H368   H     0.31430   0.93813   0.13126   0.00000  Uiso   1.00
H369   H     0.40141   0.94285   0.28302   0.00000  Uiso   1.00
H370   H     0.34024   0.90748   0.28870   0.00000  Uiso   1.00
H371   H     0.30554   0.94759   0.40119   0.00000  Uiso   1.00
H372   H     0.49064   0.95583   0.07079   0.00000  Uiso   1.00
H373   H     0.49939   0.96052   0.31968   0.00000  Uiso   1.00
H374   H     0.40992   0.92420   0.52710   0.00000  Uiso   1.00
H375   H     0.34489   0.89349   0.53234   0.00000  Uiso   1.00
H376   H     0.30933   0.94263   0.62706   0.00000  Uiso   1.00
H377   H     0.40044   0.94093   0.77660   0.00000  Uiso   1.00
H378   H     0.33540   0.90982   0.78250   0.00000  Uiso   1.00
H379   H     0.30682   0.94700   0.88487   0.00000  Uiso   1.00
H380   H     0.49317   0.95706   0.82371   0.00000  Uiso   1.00
H381   H     0.68632   0.06667   0.00021   0.00000  Uiso   1.00
H382   H     0.59400   0.07020   0.14894   0.00000  Uiso   1.00
H383   H     0.65979   0.09806   0.15627   0.00000  Uiso   1.00
H384   H     0.59496   0.06984   0.40007   0.00000  Uiso   1.00
H385   H     0.65859   0.09996   0.40818   0.00000  Uiso   1.00
H386   H     0.69060   0.06759   0.25627   0.00000  Uiso   1.00
H387   H     0.51668   0.04600   0.19091   0.00000  Uiso   1.00
H388   H     0.50694   0.04947   0.44360   0.00000  Uiso   1.00
H389   H     0.52251   0.04722   0.95206   0.00000  Uiso   1.00
H390   H     0.69037   0.06318   0.51182   0.00000  Uiso   1.00
H391   H     0.59104   0.07191   0.64961   0.00000  Uiso   1.00
H392   H     0.65731   0.09939   0.66211   0.00000  Uiso   1.00
H393   H     0.58474   0.08345   0.89249   0.00000  Uiso   1.00
H394   H     0.64680   0.10979   0.90445   0.00000  Uiso   1.00
H395   H     0.50508   0.05032   0.68881   0.00000  Uiso   1.00
H396   H     0.68763   0.06147   0.76316   0.00000  Uiso   1.00
H397   H     0.69114   0.39480   0.25972   0.00000  Uiso   1.00
H398   H     0.56178   0.22750   0.13277   0.00000  Uiso   1.00
H399   H     0.65858   0.23658   0.02588   0.00000  Uiso   1.00
H400   H     0.59485   0.26482   0.03739   0.00000  Uiso   1.00
H401   H     0.56742   0.23531   0.37658   0.00000  Uiso   1.00
H402   H     0.65635   0.23419   0.27997   0.00000  Uiso   1.00
H403   H     0.59719   0.27422   0.27590   0.00000  Uiso   1.00
H404   H     0.51839   0.37477   0.44090   0.00000  Uiso   1.00
H405   H     0.73414   0.21456   0.32651   0.00000  Uiso   1.00
H406   H     0.68257   0.39504   0.00032   0.00000  Uiso   1.00
H407   H     0.51421   0.38139   0.19180   0.00000  Uiso   1.00
H408   H     0.72456   0.20395   0.07613   0.00000  Uiso   1.00
H409   H     0.50541   0.29129   0.32234   0.00000  Uiso   1.00
H410   H     0.52367   0.37399   0.94445   0.00000  Uiso   1.00
H411   H     0.56346   0.23293   0.63769   0.00000  Uiso   1.00
H412   H     0.65677   0.23504   0.53145   0.00000  Uiso   1.00
H413   H     0.59473   0.27059   0.52937   0.00000  Uiso   1.00
H414   H     0.56726   0.23441   0.88204   0.00000  Uiso   1.00
H415   H     0.66784   0.24437   0.76479   0.00000  Uiso   1.00
H416   H     0.60329   0.27446   0.77997   0.00000  Uiso   1.00
H417   H     0.73147   0.20774   0.57074   0.00000  Uiso   1.00
H418   H     0.51015   0.37988   0.69846   0.00000  Uiso   1.00
H419   H     0.73155   0.21149   0.82461   0.00000  Uiso   1.00
H420   H     0.68878   0.39273   0.50638   0.00000  Uiso   1.00
H421   H     0.56810   0.57044   0.12214   0.00000  Uiso   1.00
H422   H     0.65452   0.43950   0.14959   0.00000  Uiso   1.00
H423   H     0.65678   0.57444   0.02330   0.00000  Uiso   1.00
H424   H     0.56939   0.57358   0.38231   0.00000  Uiso   1.00
H425   H     0.64824   0.44104   0.39839   0.00000  Uiso   1.00
H426   H     0.65896   0.57643   0.26987   0.00000  Uiso   1.00
H427   H     0.59125   0.40458   0.14611   0.00000  Uiso   1.00
H428   H     0.74576   0.54857   0.31609   0.00000  Uiso   1.00
H429   H     0.58622   0.40764   0.38827   0.00000  Uiso   1.00
H430   H     0.74691   0.54361   0.07119   0.00000  Uiso   1.00
H431   H     0.59229   0.59894   0.28182   0.00000  Uiso   1.00
H432   H     0.56176   0.56095   0.64066   0.00000  Uiso   1.00
H433   H     0.64951   0.43842   0.65045   0.00000  Uiso   1.00
H434   H     0.56251   0.56210   0.87965   0.00000  Uiso   1.00
H435   H     0.65942   0.42630   0.91106   0.00000  Uiso   1.00
H436   H     0.65775   0.56518   0.78675   0.00000  Uiso   1.00
H437   H     0.59225   0.40426   0.64693   0.00000  Uiso   1.00
H438   H     0.72570   0.54096   0.81262   0.00000  Uiso   1.00
H439   H     0.66188   0.57852   0.52984   0.00000  Uiso   1.00
H440   H     0.59632   0.40152   0.89976   0.00000  Uiso   1.00
H441   H     0.74294   0.54658   0.57144   0.00000  Uiso   1.00
H442   H     0.68240   0.40575   0.75378   0.00000  Uiso   1.00
H443   H     0.52145   0.71006   0.18909   0.00000  Uiso   1.00
H444   H     0.58759   0.73837   0.13781   0.00000  Uiso   1.00
H445   H     0.65053   0.77043   0.14574   0.00000  Uiso   1.00
H446   H     0.59861   0.73027   0.39697   0.00000  Uiso   1.00
H447   H     0.66489   0.75589   0.40406   0.00000  Uiso   1.00
H448   H     0.59540   0.60595   0.03174   0.00000  Uiso   1.00
H449   H     0.69051   0.72333   0.24909   0.00000  Uiso   1.00
H450   H     0.52359   0.70945   0.44050   0.00000  Uiso   1.00
H451   H     0.68888   0.73063   0.00059   0.00000  Uiso   1.00
H452   H     0.59677   0.73332   0.65407   0.00000  Uiso   1.00
H453   H     0.65656   0.76206   0.66405   0.00000  Uiso   1.00
H454   H     0.51614   0.70718   0.94206   0.00000  Uiso   1.00
H455   H     0.58872   0.73404   0.89817   0.00000  Uiso   1.00
H456   H     0.65047   0.76778   0.90473   0.00000  Uiso   1.00
H457   H     0.68372   0.73300   0.75245   0.00000  Uiso   1.00
H458   H     0.52090   0.70709   0.69197   0.00000  Uiso   1.00
H459   H     0.59561   0.60442   0.53585   0.00000  Uiso   1.00
H460   H     0.59546   0.60159   0.79017   0.00000  Uiso   1.00
H461   H     0.69590   0.71915   0.51394   0.00000  Uiso   1.00
H462   H     0.56038   0.90451   0.13438   0.00000  Uiso   1.00
H463   H     0.59309   0.94926   0.02790   0.00000  Uiso   1.00
H464   H     0.56978   0.90262   0.37351   0.00000  Uiso   1.00
H465   H     0.65700   0.90975   0.27410   0.00000  Uiso   1.00
H466   H     0.59354   0.93566   0.28495   0.00000  Uiso   1.00
H467   H     0.65911   0.91381   0.02237   0.00000  Uiso   1.00
H468   H     0.74581   0.87479   0.31994   0.00000  Uiso   1.00
H469   H     0.56477   0.89911   0.63609   0.00000  Uiso   1.00
H470   H     0.58895   0.93482   0.52300   0.00000  Uiso   1.00
H471   H     0.55593   0.89530   0.89237   0.00000  Uiso   1.00
H472   H     0.66514   0.91146   0.77393   0.00000  Uiso   1.00
H473   H     0.60339   0.94336   0.78368   0.00000  Uiso   1.00
H474   H     0.65620   0.90436   0.52432   0.00000  Uiso   1.00
H475   H     0.73905   0.87993   0.81842   0.00000  Uiso   1.00
H476   H     0.74195   0.87645   0.57066   0.00000  Uiso   1.00
H477   H     0.50580   0.95421   0.57166   0.00000  Uiso   1.00
H478   H     0.84214   0.10135   0.15641   0.00000  Uiso   1.00
H479   H     0.90356   0.06062   0.15683   0.00000  Uiso   1.00
H480   H     0.93544   0.09981   0.26226   0.00000  Uiso   1.00
H481   H     0.83374   0.08536   0.39143   0.00000  Uiso   1.00
H482   H     0.89467   0.05490   0.40268   0.00000  Uiso   1.00
H483   H     0.92775   0.09345   0.00712   0.00000  Uiso   1.00
H484   H     0.75807   0.12812   0.19760   0.00000  Uiso   1.00
H485   H     0.75579   0.11850   0.45312   0.00000  Uiso   1.00
H486   H     0.93175   0.09456   0.49921   0.00000  Uiso   1.00
H487   H     0.84808   0.09528   0.65698   0.00000  Uiso   1.00
H488   H     0.91126   0.07014   0.66062   0.00000  Uiso   1.00
H489   H     0.93841   0.10369   0.75987   0.00000  Uiso   1.00
H490   H     0.83881   0.09154   0.90168   0.00000  Uiso   1.00
H491   H     0.90148   0.06407   0.90885   0.00000  Uiso   1.00
H492   H     0.75418   0.12277   0.69829   0.00000  Uiso   1.00
H493   H     0.76730   0.12283   0.94519   0.00000  Uiso   1.00
H494   H     0.99282   0.04561   0.69825   0.00000  Uiso   1.00
H495   H     0.90582   0.26493   0.02802   0.00000  Uiso   1.00
H496   H     0.84299   0.23372   0.02859   0.00000  Uiso   1.00
H497   H     0.81228   0.27277   0.12801   0.00000  Uiso   1.00
H498   H     0.90308   0.26419   0.27142   0.00000  Uiso   1.00
H499   H     0.84051   0.23958   0.28333   0.00000  Uiso   1.00
H500   H     0.81726   0.26794   0.38010   0.00000  Uiso   1.00
H501   H     0.98680   0.28692   0.32381   0.00000  Uiso   1.00
H502   H     0.98684   0.28560   0.06292   0.00000  Uiso   1.00
H503   H     0.90374   0.39179   0.15527   0.00000  Uiso   1.00
H504   H     0.90405   0.39915   0.40562   0.00000  Uiso   1.00
H505   H     0.85164   0.22824   0.52916   0.00000  Uiso   1.00
H506   H     0.97343   0.29412   0.57457   0.00000  Uiso   1.00
H507   H     0.80490   0.28317   0.64219   0.00000  Uiso   1.00
H508   H     0.90557   0.27049   0.77849   0.00000  Uiso   1.00
H509   H     0.84502   0.23420   0.78352   0.00000  Uiso   1.00
H510   H     0.81622   0.27296   0.87730   0.00000  Uiso   1.00
H511   H     0.91495   0.26190   0.52162   0.00000  Uiso   1.00
H512   H     0.97877   0.28887   0.81815   0.00000  Uiso   1.00
H513   H     0.90125   0.39927   0.65385   0.00000  Uiso   1.00
H514   H     0.84112   0.56960   0.03878   0.00000  Uiso   1.00
H515   H     0.83999   0.41824   0.15041   0.00000  Uiso   1.00
H516   H     0.76280   0.45741   0.19801   0.00000  Uiso   1.00
H517   H     0.93291   0.43227   0.25372   0.00000  Uiso   1.00
H518   H     0.85063   0.55891   0.27847   0.00000  Uiso   1.00
H519   H     0.84059   0.42790   0.40049   0.00000  Uiso   1.00
H520   H     0.93662   0.43726   0.01160   0.00000  Uiso   1.00
H521   H     0.76412   0.45561   0.43867   0.00000  Uiso   1.00
H522   H     0.81600   0.59321   0.12973   0.00000  Uiso   1.00
H523   H     0.90826   0.59627   0.27593   0.00000  Uiso   1.00
H524   H     0.90381   0.59699   0.02960   0.00000  Uiso   1.00
H525   H     0.83838   0.56723   0.53143   0.00000  Uiso   1.00
H526   H     0.83932   0.42947   0.64833   0.00000  Uiso   1.00
H527   H     0.94405   0.44121   0.76260   0.00000  Uiso   1.00
H528   H     0.83620   0.56885   0.78270   0.00000  Uiso   1.00
H529   H     0.85177   0.44138   0.90809   0.00000  Uiso   1.00
H530   H     0.90058   0.59575   0.77870   0.00000  Uiso   1.00
H531   H     0.76949   0.45661   0.69270   0.00000  Uiso   1.00
H532   H     0.93444   0.43838   0.50638   0.00000  Uiso   1.00
H533   H     0.90115   0.59752   0.52968   0.00000  Uiso   1.00
H534   H     0.77529   0.45582   0.93575   0.00000  Uiso   1.00
H535   H     0.81575   0.59883   0.87756   0.00000  Uiso   1.00
H536   H     0.91189   0.40285   0.91238   0.00000  Uiso   1.00
H537   H     0.97645   0.62701   0.32144   0.00000  Uiso   1.00
H538   H     0.76876   0.78687   0.44472   0.00000  Uiso   1.00
H539   H     0.84024   0.76407   0.14860   0.00000  Uiso   1.00
H540   H     0.90192   0.73329   0.15643   0.00000  Uiso   1.00
H541   H     0.99273   0.62002   0.07554   0.00000  Uiso   1.00
H542   H     0.94302   0.77197   0.26715   0.00000  Uiso   1.00
H543   H     0.83851   0.76488   0.39741   0.00000  Uiso   1.00
H544   H     0.90217   0.73014   0.40993   0.00000  Uiso   1.00
H545   H     0.76353   0.78740   0.19077   0.00000  Uiso   1.00
H546   H     0.99576   0.71393   0.20424   0.00000  Uiso   1.00
H547   H     0.81563   0.60187   0.37642   0.00000  Uiso   1.00
H548   H     0.93016   0.75861   0.50671   0.00000  Uiso   1.00
H549   H     0.84208   0.75765   0.65711   0.00000  Uiso   1.00
H550   H     0.90459   0.72809   0.65819   0.00000  Uiso   1.00
H551   H     0.93853   0.77413   0.76700   0.00000  Uiso   1.00
H552   H     0.82983   0.75498   0.89599   0.00000  Uiso   1.00
H553   H     0.89521   0.72295   0.90476   0.00000  Uiso   1.00
H554   H     0.76911   0.79175   0.69862   0.00000  Uiso   1.00
H555   H     0.97637   0.62646   0.82570   0.00000  Uiso   1.00
H556   H     0.76496   0.78906   0.94200   0.00000  Uiso   1.00
H557   H     0.97610   0.62538   0.57759   0.00000  Uiso   1.00
H558   H     0.81416   0.60017   0.63122   0.00000  Uiso   1.00
H559   H     0.93101   0.76322   0.99804   0.00000  Uiso   1.00
H560   H     0.98088   0.95440   0.07275   0.00000  Uiso   1.00
H561   H     0.75530   0.87728   0.06768   0.00000  Uiso   1.00
H562   H     0.90439   0.92764   0.02061   0.00000  Uiso   1.00
H563   H     0.84133   0.89579   0.02568   0.00000  Uiso   1.00
H564   H     0.82000   0.92872   0.12801   0.00000  Uiso   1.00
H565   H     0.90908   0.92158   0.27656   0.00000  Uiso   1.00
H566   H     0.84790   0.89491   0.28001   0.00000  Uiso   1.00
H567   H     0.81425   0.93014   0.38613   0.00000  Uiso   1.00
H568   H     0.97099   0.95547   0.32072   0.00000  Uiso   1.00
H569   H     0.98125   0.95317   0.57289   0.00000  Uiso   1.00
H570   H     0.90765   0.92603   0.52851   0.00000  Uiso   1.00
H571   H     0.84363   0.89147   0.53393   0.00000  Uiso   1.00
H572   H     0.81133   0.93147   0.63198   0.00000  Uiso   1.00
H573   H     0.90860   0.92155   0.77612   0.00000  Uiso   1.00
H574   H     0.84459   0.89564   0.78267   0.00000  Uiso   1.00
H575   H     0.81761   0.93349   0.87389   0.00000  Uiso   1.00
H576   H     0.98421   0.95347   0.82130   0.00000  Uiso   1.00
C577   C     0.11322   0.06261   0.12060   0.00000  Uiso   1.00
C578   C     0.14863   0.08272   0.11976   0.00000  Uiso   1.00
C579   C     0.13087   0.03710   0.03691   0.00000  Uiso   1.00
C580   C     0.16526   0.05858   0.03646   0.00000  Uiso   1.00
C581   C     0.06446   0.02320   0.07806   0.00000  Uiso   1.00
C582   C     0.10571   0.03851   0.07964   0.00000  Uiso   1.00
C583   C     0.20587   0.10937   0.07564   0.00000  Uiso   1.00
C584   C     0.17355   0.08218   0.07786   0.00000  Uiso   1.00
C585   C     0.11766   0.06603   0.37672   0.00000  Uiso   1.00
C586   C     0.15366   0.08390   0.37601   0.00000  Uiso   1.00
C587   C     0.13544   0.04276   0.29255   0.00000  Uiso   1.00
C588   C     0.17218   0.06056   0.29482   0.00000  Uiso   1.00
C589   C     0.06687   0.02602   0.32959   0.00000  Uiso   1.00
C590   C     0.10629   0.04678   0.33255   0.00000  Uiso   1.00
C591   C     0.21321   0.10964   0.33227   0.00000  Uiso   1.00
C592   C     0.18133   0.08210   0.33560   0.00000  Uiso   1.00
C593   C     0.18547   0.19682   0.19954   0.00000  Uiso   1.00
C594   C     0.18272   0.19612   0.44818   0.00000  Uiso   1.00
C595   C     0.11075   0.07054   0.61625   0.00000  Uiso   1.00
C596   C     0.14758   0.08855   0.62002   0.00000  Uiso   1.00
C597   C     0.12860   0.04295   0.53375   0.00000  Uiso   1.00
C598   C     0.16347   0.06161   0.53523   0.00000  Uiso   1.00
C599   C     0.06120   0.03092   0.57639   0.00000  Uiso   1.00
C600   C     0.09936   0.04909   0.57395   0.00000  Uiso   1.00
C601   C     0.20621   0.11253   0.57152   0.00000  Uiso   1.00
C602   C     0.17346   0.08637   0.57636   0.00000  Uiso   1.00
C603   C     0.11143   0.07769   0.86077   0.00000  Uiso   1.00
C604   C     0.14831   0.09104   0.86351   0.00000  Uiso   1.00
C605   C     0.12881   0.05003   0.77782   0.00000  Uiso   1.00
C606   C     0.16446   0.06832   0.77941   0.00000  Uiso   1.00
C607   C     0.06037   0.03618   0.81988   0.00000  Uiso   1.00
C608   C     0.10001   0.05606   0.81771   0.00000  Uiso   1.00
C609   C     0.21017   0.11349   0.82270   0.00000  Uiso   1.00
C610   C     0.17502   0.08828   0.82282   0.00000  Uiso   1.00
C611   C     0.06531   0.36400   0.31952   0.00000  Uiso   1.00
C612   C     0.11666   0.21119   0.41503   0.00000  Uiso   1.00
C613   C     0.11763   0.20861   0.16229   0.00000  Uiso   1.00
C614   C     0.13960   0.23728   0.49592   0.00000  Uiso   1.00
C615   C     0.08095   0.22749   0.16314   0.00000  Uiso   1.00
C616   C     0.13625   0.37471   0.28321   0.00000  Uiso   1.00
C617   C     0.14388   0.21183   0.20310   0.00000  Uiso   1.00
C618   C     0.03673   0.27263   0.20495   0.00000  Uiso   1.00
C619   C     0.07076   0.24747   0.20638   0.00000  Uiso   1.00
C620   C     0.13161   0.22988   0.24733   0.00000  Uiso   1.00
C621   C     0.09456   0.24731   0.25009   0.00000  Uiso   1.00
C622   C     0.06561   0.36406   0.07619   0.00000  Uiso   1.00
C623   C     0.08410   0.23461   0.41615   0.00000  Uiso   1.00
C624   C     0.10602   0.38113   0.31963   0.00000  Uiso   1.00
C625   C     0.14665   0.21448   0.45353   0.00000  Uiso   1.00
C626   C     0.04355   0.28147   0.45438   0.00000  Uiso   1.00
C627   C     0.07613   0.25626   0.45738   0.00000  Uiso   1.00
C628   C     0.13331   0.37904   0.03657   0.00000  Uiso   1.00
C629   C     0.10586   0.37932   0.07598   0.00000  Uiso   1.00
C630   C     0.10235   0.25500   0.49973   0.00000  Uiso   1.00
C631   C     0.11871   0.39427   0.12113   0.00000  Uiso   1.00
C632   C     0.17207   0.39559   0.28530   0.00000  Uiso   1.00
C633   C     0.06669   0.36120   0.82225   0.00000  Uiso   1.00
C634   C     0.10245   0.25657   0.99886   0.00000  Uiso   1.00
C635   C     0.14830   0.21975   0.95064   0.00000  Uiso   1.00
C636   C     0.18629   0.20233   0.94591   0.00000  Uiso   1.00
C637   C     0.13565   0.37604   0.53835   0.00000  Uiso   1.00
C638   C     0.11781   0.21313   0.65583   0.00000  Uiso   1.00
C639   C     0.07954   0.22977   0.66182   0.00000  Uiso   1.00
C640   C     0.13557   0.37292   0.78703   0.00000  Uiso   1.00
C641   C     0.14407   0.21691   0.69633   0.00000  Uiso   1.00
C642   C     0.03711   0.27954   0.70044   0.00000  Uiso   1.00
C643   C     0.06864   0.25056   0.70575   0.00000  Uiso   1.00
C644   C     0.13290   0.23475   0.74269   0.00000  Uiso   1.00
C645   C     0.09566   0.25253   0.74510   0.00000  Uiso   1.00
C646   C     0.06665   0.35930   0.57517   0.00000  Uiso   1.00
C647   C     0.12280   0.21706   0.90975   0.00000  Uiso   1.00
C648   C     0.08560   0.23484   0.91337   0.00000  Uiso   1.00
C649   C     0.10747   0.37721   0.82510   0.00000  Uiso   1.00
C650   C     0.13834   0.23955   0.99397   0.00000  Uiso   1.00
C651   C     0.04421   0.28236   0.95163   0.00000  Uiso   1.00
C652   C     0.07633   0.25606   0.95676   0.00000  Uiso   1.00
C653   C     0.10702   0.37920   0.57658   0.00000  Uiso   1.00
C654   C     0.16889   0.39546   0.78595   0.00000  Uiso   1.00
C655   C     0.18467   0.20202   0.69340   0.00000  Uiso   1.00
C656   C     0.16959   0.39855   0.53935   0.00000  Uiso   1.00
C657   C     0.11736   0.39926   0.62178   0.00000  Uiso   1.00
C658   C     0.17989   0.42050   0.32412   0.00000  Uiso   1.00
C659   C     0.07243   0.58339   0.21065   0.00000  Uiso   1.00
C660   C     0.11391   0.53894   0.16625   0.00000  Uiso   1.00
C661   C     0.07954   0.56161   0.16883   0.00000  Uiso   1.00
C662   C     0.15596   0.41212   0.12550   0.00000  Uiso   1.00
C663   C     0.18455   0.52829   0.20181   0.00000  Uiso   1.00
C664   C     0.14311   0.54342   0.20474   0.00000  Uiso   1.00
C665   C     0.07558   0.58578   0.45448   0.00000  Uiso   1.00
C666   C     0.13588   0.56751   0.24350   0.00000  Uiso   1.00
C667   C     0.21202   0.44716   0.32252   0.00000  Uiso   1.00
C668   C     0.20876   0.44830   0.08268   0.00000  Uiso   1.00
C669   C     0.17827   0.41837   0.08294   0.00000  Uiso   1.00
C670   C     0.11986   0.54317   0.41205   0.00000  Uiso   1.00
C671   C     0.08538   0.56368   0.41184   0.00000  Uiso   1.00
C672   C     0.15259   0.42323   0.36360   0.00000  Uiso   1.00
C673   C     0.18874   0.53227   0.45069   0.00000  Uiso   1.00
C674   C     0.14751   0.54621   0.45286   0.00000  Uiso   1.00
C675   C     0.11609   0.40480   0.36082   0.00000  Uiso   1.00
C676   C     0.10151   0.58716   0.24755   0.00000  Uiso   1.00
C677   C     0.13431   0.56424   0.49829   0.00000  Uiso   1.00
C678   C     0.16520   0.40305   0.03745   0.00000  Uiso   1.00
C679   C     0.09820   0.58113   0.49997   0.00000  Uiso   1.00
C680   C     0.20920   0.44766   0.82587   0.00000  Uiso   1.00
C681   C     0.12081   0.54597   0.66595   0.00000  Uiso   1.00
C682   C     0.08498   0.56535   0.67023   0.00000  Uiso   1.00
C683   C     0.15486   0.41546   0.62418   0.00000  Uiso   1.00
C684   C     0.18990   0.53183   0.70143   0.00000  Uiso   1.00
C685   C     0.14993   0.54991   0.70496   0.00000  Uiso   1.00
C686   C     0.10190   0.58719   0.75737   0.00000  Uiso   1.00
C687   C     0.13809   0.57027   0.75003   0.00000  Uiso   1.00
C688   C     0.21007   0.44830   0.57776   0.00000  Uiso   1.00
C689   C     0.17846   0.41970   0.58095   0.00000  Uiso   1.00
C690   C     0.11547   0.54003   0.91342   0.00000  Uiso   1.00
C691   C     0.13658   0.56292   0.99689   0.00000  Uiso   1.00
C692   C     0.08217   0.56262   0.91493   0.00000  Uiso   1.00
C693   C     0.15031   0.42065   0.86765   0.00000  Uiso   1.00
C694   C     0.18310   0.52327   0.94631   0.00000  Uiso   1.00
C695   C     0.14519   0.54236   0.95278   0.00000  Uiso   1.00
C696   C     0.07626   0.58687   0.71447   0.00000  Uiso   1.00
C697   C     0.17645   0.42091   0.82788   0.00000  Uiso   1.00
C698   C     0.07370   0.58464   0.95818   0.00000  Uiso   1.00
C699   C     0.11525   0.40004   0.86547   0.00000  Uiso   1.00
C700   C     0.10128   0.58306   0.99969   0.00000  Uiso   1.00
C701   C     0.04144   0.61144   0.45354   0.00000  Uiso   1.00
C702   C     0.04008   0.61198   0.20857   0.00000  Uiso   1.00
C703   C     0.10960   0.74546   0.12048   0.00000  Uiso   1.00
C704   C     0.14657   0.75989   0.12532   0.00000  Uiso   1.00
C705   C     0.12883   0.71486   0.04187   0.00000  Uiso   1.00
C706   C     0.16439   0.73598   0.04113   0.00000  Uiso   1.00
C707   C     0.06315   0.70157   0.08030   0.00000  Uiso   1.00
C708   C     0.09965   0.72213   0.07887   0.00000  Uiso   1.00
C709   C     0.20495   0.78669   0.07780   0.00000  Uiso   1.00
C710   C     0.17301   0.75939   0.08232   0.00000  Uiso   1.00
C711   C     0.11684   0.73274   0.37474   0.00000  Uiso   1.00
C712   C     0.15138   0.75335   0.37781   0.00000  Uiso   1.00
C713   C     0.13135   0.71381   0.28914   0.00000  Uiso   1.00
C714   C     0.16674   0.73395   0.29086   0.00000  Uiso   1.00
C715   C     0.06341   0.69867   0.32805   0.00000  Uiso   1.00
C716   C     0.10440   0.71545   0.33097   0.00000  Uiso   1.00
C717   C     0.20664   0.78482   0.33098   0.00000  Uiso   1.00
C718   C     0.17619   0.75633   0.33339   0.00000  Uiso   1.00
C719   C     0.04186   0.61161   0.71233   0.00000  Uiso   1.00
C720   C     0.11418   0.73156   0.61898   0.00000  Uiso   1.00
C721   C     0.14907   0.75059   0.62025   0.00000  Uiso   1.00
C722   C     0.13274   0.70839   0.53545   0.00000  Uiso   1.00
C723   C     0.16652   0.73011   0.53709   0.00000  Uiso   1.00
C724   C     0.06477   0.69264   0.57683   0.00000  Uiso   1.00
C725   C     0.10506   0.71030   0.57648   0.00000  Uiso   1.00
C726   C     0.20590   0.78138   0.57666   0.00000  Uiso   1.00
C727   C     0.17392   0.75313   0.57814   0.00000  Uiso   1.00
C728   C     0.04320   0.61434   0.95574   0.00000  Uiso   1.00
C729   C     0.11124   0.73894   0.87102   0.00000  Uiso   1.00
C730   C     0.14724   0.75865   0.86973   0.00000  Uiso   1.00
C731   C     0.12636   0.71251   0.78663   0.00000  Uiso   1.00
C732   C     0.16065   0.73559   0.78263   0.00000  Uiso   1.00
C733   C     0.05982   0.70059   0.82898   0.00000  Uiso   1.00
C734   C     0.10062   0.71632   0.82780   0.00000  Uiso   1.00
C735   C     0.20478   0.78509   0.82258   0.00000  Uiso   1.00
C736   C     0.17088   0.75896   0.82304   0.00000  Uiso   1.00
C737   C     0.11857   0.87601   0.16868   0.00000  Uiso   1.00
C738   C     0.08161   0.89122   0.17125   0.00000  Uiso   1.00
C739   C     0.18888   0.86785   0.20252   0.00000  Uiso   1.00
C740   C     0.14823   0.88416   0.20503   0.00000  Uiso   1.00
C741   C     0.03867   0.94052   0.20995   0.00000  Uiso   1.00
C742   C     0.07007   0.91238   0.21509   0.00000  Uiso   1.00
C743   C     0.13886   0.90426   0.24672   0.00000  Uiso   1.00
C744   C     0.09898   0.91620   0.25299   0.00000  Uiso   1.00
C745   C     0.11840   0.86961   0.41339   0.00000  Uiso   1.00
C746   C     0.08257   0.88795   0.41665   0.00000  Uiso   1.00
C747   C     0.18711   0.85964   0.44952   0.00000  Uiso   1.00
C748   C     0.14745   0.87489   0.45232   0.00000  Uiso   1.00
C749   C     0.04066   0.93853   0.45061   0.00000  Uiso   1.00
C750   C     0.07227   0.90959   0.45550   0.00000  Uiso   1.00
C751   C     0.13415   0.89513   0.49647   0.00000  Uiso   1.00
C752   C     0.09696   0.91112   0.49881   0.00000  Uiso   1.00
C753   C     0.13523   0.90047   0.99379   0.00000  Uiso   1.00
C754   C     0.11939   0.87589   0.66461   0.00000  Uiso   1.00
C755   C     0.08413   0.89677   0.66602   0.00000  Uiso   1.00
C756   C     0.18689   0.86185   0.70224   0.00000  Uiso   1.00
C757   C     0.14798   0.88179   0.70256   0.00000  Uiso   1.00
C758   C     0.04200   0.94545   0.70453   0.00000  Uiso   1.00
C759   C     0.07571   0.91924   0.70755   0.00000  Uiso   1.00
C760   C     0.13945   0.90607   0.74309   0.00000  Uiso   1.00
C761   C     0.10292   0.92201   0.74900   0.00000  Uiso   1.00
C762   C     0.11599   0.87630   0.90924   0.00000  Uiso   1.00
C763   C     0.07940   0.89477   0.91341   0.00000  Uiso   1.00
C764   C     0.18185   0.86118   0.94739   0.00000  Uiso   1.00
C765   C     0.14292   0.87769   0.95111   0.00000  Uiso   1.00
C766   C     0.03725   0.94329   0.95458   0.00000  Uiso   1.00
C767   C     0.07145   0.91724   0.95707   0.00000  Uiso   1.00
C768   C     0.09921   0.91916   0.99679   0.00000  Uiso   1.00
C769   C     0.38022   0.12565   0.03029   0.00000  Uiso   1.00
C770   C     0.41642   0.10591   0.03611   0.00000  Uiso   1.00
C771   C     0.31236   0.14259   0.06744   0.00000  Uiso   1.00
C772   C     0.35119   0.12342   0.06906   0.00000  Uiso   1.00
C773   C     0.45300   0.05456   0.07967   0.00000  Uiso   1.00
C774   C     0.42400   0.08457   0.08111   0.00000  Uiso   1.00
C775   C     0.36077   0.10412   0.11387   0.00000  Uiso   1.00
C776   C     0.39708   0.08520   0.12079   0.00000  Uiso   1.00
C777   C     0.38361   0.12992   0.28662   0.00000  Uiso   1.00
C778   C     0.41849   0.10958   0.29187   0.00000  Uiso   1.00
C779   C     0.31276   0.14270   0.31938   0.00000  Uiso   1.00
C780   C     0.35206   0.12592   0.32473   0.00000  Uiso   1.00
C781   C     0.45791   0.05922   0.33164   0.00000  Uiso   1.00
C782   C     0.42626   0.08679   0.33372   0.00000  Uiso   1.00
C783   C     0.36284   0.10563   0.36750   0.00000  Uiso   1.00
C784   C     0.39945   0.08806   0.37306   0.00000  Uiso   1.00
C785   C     0.37842   0.12259   0.53215   0.00000  Uiso   1.00
C786   C     0.41333   0.10183   0.53351   0.00000  Uiso   1.00
C787   C     0.31010   0.13549   0.57389   0.00000  Uiso   1.00
C788   C     0.34847   0.11699   0.57211   0.00000  Uiso   1.00
C789   C     0.45687   0.05208   0.57532   0.00000  Uiso   1.00
C790   C     0.42347   0.08011   0.57637   0.00000  Uiso   1.00
C791   C     0.35853   0.09495   0.61344   0.00000  Uiso   1.00
C792   C     0.39514   0.08031   0.61663   0.00000  Uiso   1.00
C793   C     0.38105   0.12733   0.77831   0.00000  Uiso   1.00
C794   C     0.41663   0.10787   0.78135   0.00000  Uiso   1.00
C795   C     0.31439   0.14322   0.81801   0.00000  Uiso   1.00
C796   C     0.35402   0.12718   0.81791   0.00000  Uiso   1.00
C797   C     0.45783   0.06045   0.82274   0.00000  Uiso   1.00
C798   C     0.42652   0.08857   0.82487   0.00000  Uiso   1.00
C799   C     0.36498   0.10954   0.86469   0.00000  Uiso   1.00
C800   C     0.40316   0.09279   0.86896   0.00000  Uiso   1.00
C801   C     0.38738   0.25850   0.24020   0.00000  Uiso   1.00
C802   C     0.35084   0.24109   0.24368   0.00000  Uiso   1.00
C803   C     0.36727   0.28538   0.15924   0.00000  Uiso   1.00
C804   C     0.33184   0.26369   0.15998   0.00000  Uiso   1.00
C805   C     0.43638   0.29925   0.19735   0.00000  Uiso   1.00
C806   C     0.39588   0.28080   0.19824   0.00000  Uiso   1.00
C807   C     0.29029   0.21642   0.20000   0.00000  Uiso   1.00
C808   C     0.32407   0.24264   0.20298   0.00000  Uiso   1.00
C809   C     0.45677   0.38735   0.07622   0.00000  Uiso   1.00
C810   C     0.38453   0.26508   0.48806   0.00000  Uiso   1.00
C811   C     0.37079   0.28588   0.40302   0.00000  Uiso   1.00
C812   C     0.33386   0.26868   0.40471   0.00000  Uiso   1.00
C813   C     0.43959   0.29699   0.44319   0.00000  Uiso   1.00
C814   C     0.39811   0.28218   0.44379   0.00000  Uiso   1.00
C815   C     0.28974   0.22228   0.44833   0.00000  Uiso   1.00
C816   C     0.32205   0.25032   0.44810   0.00000  Uiso   1.00
C817   C     0.46058   0.38819   0.32307   0.00000  Uiso   1.00
C818   C     0.34643   0.25080   0.49060   0.00000  Uiso   1.00
C819   C     0.38623   0.25996   0.74290   0.00000  Uiso   1.00
C820   C     0.35127   0.24071   0.74405   0.00000  Uiso   1.00
C821   C     0.36622   0.28878   0.66571   0.00000  Uiso   1.00
C822   C     0.33053   0.26970   0.66509   0.00000  Uiso   1.00
C823   C     0.43619   0.30109   0.70028   0.00000  Uiso   1.00
C824   C     0.39569   0.28269   0.70284   0.00000  Uiso   1.00
C825   C     0.29196   0.21858   0.69848   0.00000  Uiso   1.00
C826   C     0.32379   0.24436   0.70350   0.00000  Uiso   1.00
C827   C     0.46194   0.38860   0.57822   0.00000  Uiso   1.00
C828   C     0.35135   0.24706   0.99793   0.00000  Uiso   1.00
C829   C     0.37138   0.28337   0.90870   0.00000  Uiso   1.00
C830   C     0.33489   0.26658   0.91152   0.00000  Uiso   1.00
C831   C     0.43608   0.29960   0.94639   0.00000  Uiso   1.00
C832   C     0.39914   0.27992   0.94800   0.00000  Uiso   1.00
C833   C     0.29430   0.21797   0.95154   0.00000  Uiso   1.00
C834   C     0.32593   0.24511   0.95421   0.00000  Uiso   1.00
C835   C     0.45740   0.38287   0.82973   0.00000  Uiso   1.00
C836   C     0.38934   0.26223   0.99350   0.00000  Uiso   1.00
C837   C     0.42834   0.41545   0.32854   0.00000  Uiso   1.00
C838   C     0.33138   0.57743   0.45303   0.00000  Uiso   1.00
C839   C     0.29799   0.55123   0.45282   0.00000  Uiso   1.00
C840   C     0.36218   0.42493   0.36213   0.00000  Uiso   1.00
C841   C     0.39389   0.59254   0.48584   0.00000  Uiso   1.00
C842   C     0.38337   0.46335   0.04066   0.00000  Uiso   1.00
C843   C     0.41777   0.44142   0.04148   0.00000  Uiso   1.00
C844   C     0.34502   0.58973   0.24760   0.00000  Uiso   1.00
C845   C     0.31282   0.47265   0.07568   0.00000  Uiso   1.00
C846   C     0.35434   0.45512   0.07862   0.00000  Uiso   1.00
C847   C     0.42391   0.41456   0.07878   0.00000  Uiso   1.00
C848   C     0.36223   0.43151   0.12036   0.00000  Uiso   1.00
C849   C     0.35873   0.57372   0.49029   0.00000  Uiso   1.00
C850   C     0.28835   0.55883   0.20290   0.00000  Uiso   1.00
C851   C     0.32115   0.58591   0.20320   0.00000  Uiso   1.00
C852   C     0.38314   0.45827   0.28843   0.00000  Uiso   1.00
C853   C     0.41944   0.44087   0.28959   0.00000  Uiso   1.00
C854   C     0.31641   0.47056   0.32658   0.00000  Uiso   1.00
C855   C     0.35443   0.45121   0.32605   0.00000  Uiso   1.00
C856   C     0.40033   0.41079   0.36824   0.00000  Uiso   1.00
C857   C     0.39739   0.41043   0.11880   0.00000  Uiso   1.00
C858   C     0.28675   0.55606   0.95592   0.00000  Uiso   1.00
C859   C     0.43024   0.41751   0.58277   0.00000  Uiso   1.00
C860   C     0.34771   0.58043   0.99664   0.00000  Uiso   1.00
C861   C     0.42216   0.40592   0.83201   0.00000  Uiso   1.00
C862   C     0.36383   0.42871   0.87155   0.00000  Uiso   1.00
C863   C     0.38022   0.45226   0.53728   0.00000  Uiso   1.00
C864   C     0.41710   0.43546   0.54026   0.00000  Uiso   1.00
C865   C     0.34899   0.58442   0.74674   0.00000  Uiso   1.00
C866   C     0.31357   0.46437   0.57630   0.00000  Uiso   1.00
C867   C     0.35325   0.44813   0.57727   0.00000  Uiso   1.00
C868   C     0.36673   0.43228   0.62156   0.00000  Uiso   1.00
C869   C     0.38261   0.59895   0.99198   0.00000  Uiso   1.00
C870   C     0.29281   0.55438   0.70208   0.00000  Uiso   1.00
C871   C     0.32413   0.58207   0.70405   0.00000  Uiso   1.00
C872   C     0.38086   0.45015   0.78779   0.00000  Uiso   1.00
C873   C     0.41614   0.43039   0.79186   0.00000  Uiso   1.00
C874   C     0.31909   0.58212   0.95734   0.00000  Uiso   1.00
C875   C     0.31694   0.46932   0.82934   0.00000  Uiso   1.00
C876   C     0.35383   0.44914   0.82854   0.00000  Uiso   1.00
C877   C     0.40683   0.41962   0.62640   0.00000  Uiso   1.00
C878   C     0.39696   0.40563   0.87559   0.00000  Uiso   1.00
C879   C     0.38419   0.79204   0.28742   0.00000  Uiso   1.00
C880   C     0.37413   0.62214   0.40858   0.00000  Uiso   1.00
C881   C     0.43737   0.63719   0.19621   0.00000  Uiso   1.00
C882   C     0.39682   0.62249   0.20140   0.00000  Uiso   1.00
C883   C     0.37039   0.62360   0.15864   0.00000  Uiso   1.00
C884   C     0.41422   0.76972   0.03236   0.00000  Uiso   1.00
C885   C     0.37844   0.78948   0.03237   0.00000  Uiso   1.00
C886   C     0.35224   0.78706   0.07291   0.00000  Uiso   1.00
C887   C     0.45795   0.72563   0.07385   0.00000  Uiso   1.00
C888   C     0.42481   0.75061   0.07713   0.00000  Uiso   1.00
C889   C     0.36211   0.76541   0.11654   0.00000  Uiso   1.00
C890   C     0.39874   0.74709   0.11703   0.00000  Uiso   1.00
C891   C     0.44096   0.63283   0.44648   0.00000  Uiso   1.00
C892   C     0.40143   0.61640   0.44701   0.00000  Uiso   1.00
C893   C     0.42195   0.77451   0.29075   0.00000  Uiso   1.00
C894   C     0.35549   0.78653   0.32693   0.00000  Uiso   1.00
C895   C     0.46258   0.72527   0.32603   0.00000  Uiso   1.00
C896   C     0.43141   0.75355   0.33109   0.00000  Uiso   1.00
C897   C     0.36849   0.76811   0.37031   0.00000  Uiso   1.00
C898   C     0.40683   0.75236   0.37466   0.00000  Uiso   1.00
C899   C     0.33903   0.60197   0.41172   0.00000  Uiso   1.00
C900   C     0.38336   0.60521   0.24539   0.00000  Uiso   1.00
C901   C     0.33451   0.60381   0.15872   0.00000  Uiso   1.00
C902   C     0.36973   0.61956   0.65781   0.00000  Uiso   1.00
C903   C     0.36268   0.62355   0.91009   0.00000  Uiso   1.00
C904   C     0.32630   0.60580   0.91559   0.00000  Uiso   1.00
C905   C     0.39677   0.61931   0.70075   0.00000  Uiso   1.00
C906   C     0.38558   0.79487   0.79129   0.00000  Uiso   1.00
C907   C     0.43578   0.63537   0.69933   0.00000  Uiso   1.00
C908   C     0.41361   0.76957   0.54081   0.00000  Uiso   1.00
C909   C     0.35187   0.78518   0.57987   0.00000  Uiso   1.00
C910   C     0.45720   0.72013   0.57924   0.00000  Uiso   1.00
C911   C     0.42463   0.74777   0.58188   0.00000  Uiso   1.00
C912   C     0.36242   0.76362   0.62209   0.00000  Uiso   1.00
C913   C     0.39930   0.74654   0.62373   0.00000  Uiso   1.00
C914   C     0.43254   0.63563   0.94617   0.00000  Uiso   1.00
C915   C     0.39178   0.61916   0.94819   0.00000  Uiso   1.00
C916   C     0.42012   0.77413   0.79181   0.00000  Uiso   1.00
C917   C     0.35629   0.78935   0.82954   0.00000  Uiso   1.00
C918   C     0.45542   0.71948   0.82461   0.00000  Uiso   1.00
C919   C     0.42584   0.74936   0.83017   0.00000  Uiso   1.00
C920   C     0.36576   0.76749   0.87211   0.00000  Uiso   1.00
C921   C     0.40294   0.75176   0.87518   0.00000  Uiso   1.00
C922   C     0.37857   0.78798   0.53967   0.00000  Uiso   1.00
C923   C     0.38430   0.60257   0.74557   0.00000  Uiso   1.00
C924   C     0.33247   0.60292   0.66105   0.00000  Uiso   1.00
C925   C     0.31631   0.80311   0.32699   0.00000  Uiso   1.00
C926   C     0.38314   0.94338   0.25051   0.00000  Uiso   1.00
C927   C     0.34774   0.92301   0.25343   0.00000  Uiso   1.00
C928   C     0.37097   0.95278   0.15959   0.00000  Uiso   1.00
C929   C     0.33467   0.93703   0.16463   0.00000  Uiso   1.00
C930   C     0.43636   0.97363   0.20201   0.00000  Uiso   1.00
C931   C     0.39719   0.95624   0.20345   0.00000  Uiso   1.00
C932   C     0.29033   0.89115   0.20595   0.00000  Uiso   1.00
C933   C     0.32371   0.91901   0.20966   0.00000  Uiso   1.00
C934   C     0.36671   0.95686   0.41734   0.00000  Uiso   1.00
C935   C     0.32938   0.94143   0.42372   0.00000  Uiso   1.00
C936   C     0.43462   0.96855   0.45098   0.00000  Uiso   1.00
C937   C     0.39777   0.94723   0.45233   0.00000  Uiso   1.00
C938   C     0.28961   0.89037   0.45995   0.00000  Uiso   1.00
C939   C     0.32146   0.91715   0.46434   0.00000  Uiso   1.00
C940   C     0.38943   0.92663   0.49580   0.00000  Uiso   1.00
C941   C     0.31245   0.80512   0.07429   0.00000  Uiso   1.00
C942   C     0.38197   0.93367   0.99399   0.00000  Uiso   1.00
C943   C     0.38061   0.94087   0.74491   0.00000  Uiso   1.00
C944   C     0.34371   0.92351   0.74813   0.00000  Uiso   1.00
C945   C     0.36473   0.95988   0.65696   0.00000  Uiso   1.00
C946   C     0.32828   0.94180   0.66152   0.00000  Uiso   1.00
C947   C     0.43300   0.97370   0.69804   0.00000  Uiso   1.00
C948   C     0.39235   0.95870   0.70110   0.00000  Uiso   1.00
C949   C     0.28845   0.89231   0.70141   0.00000  Uiso   1.00
C950   C     0.32018   0.91995   0.70405   0.00000  Uiso   1.00
C951   C     0.36222   0.96343   0.91303   0.00000  Uiso   1.00
C952   C     0.32622   0.94500   0.91668   0.00000  Uiso   1.00
C953   C     0.43159   0.97208   0.94660   0.00000  Uiso   1.00
C954   C     0.39198   0.95498   0.94857   0.00000  Uiso   1.00
C955   C     0.28649   0.89315   0.95173   0.00000  Uiso   1.00
C956   C     0.31808   0.92049   0.95504   0.00000  Uiso   1.00
C957   C     0.31398   0.80342   0.57884   0.00000  Uiso   1.00
C958   C     0.34377   0.91763   0.99756   0.00000  Uiso   1.00
C959   C     0.31499   0.80466   0.82592   0.00000  Uiso   1.00
C960   C     0.35078   0.91173   0.50018   0.00000  Uiso   1.00
C961   C     0.68534   0.19443   0.19938   0.00000  Uiso   1.00
C962   C     0.61506   0.06918   0.11764   0.00000  Uiso   1.00
C963   C     0.65116   0.08464   0.12252   0.00000  Uiso   1.00
C964   C     0.63311   0.04554   0.03295   0.00000  Uiso   1.00
C965   C     0.66742   0.06649   0.03357   0.00000  Uiso   1.00
C966   C     0.56442   0.02872   0.07291   0.00000  Uiso   1.00
C967   C     0.60448   0.04711   0.07412   0.00000  Uiso   1.00
C968   C     0.70732   0.11564   0.07573   0.00000  Uiso   1.00
C969   C     0.67642   0.08762   0.07689   0.00000  Uiso   1.00
C970   C     0.61611   0.06869   0.36959   0.00000  Uiso   1.00
C971   C     0.65224   0.08659   0.37335   0.00000  Uiso   1.00
C972   C     0.63414   0.04633   0.28405   0.00000  Uiso   1.00
C973   C     0.66890   0.06746   0.28691   0.00000  Uiso   1.00
C974   C     0.56464   0.02962   0.32452   0.00000  Uiso   1.00
C975   C     0.60562   0.04919   0.32581   0.00000  Uiso   1.00
C976   C     0.70705   0.11735   0.32583   0.00000  Uiso   1.00
C977   C     0.67574   0.08871   0.32909   0.00000  Uiso   1.00
C978   C     0.68569   0.19435   0.45100   0.00000  Uiso   1.00
C979   C     0.61446   0.06567   0.62459   0.00000  Uiso   1.00
C980   C     0.65161   0.08204   0.62980   0.00000  Uiso   1.00
C981   C     0.63518   0.04148   0.54272   0.00000  Uiso   1.00
C982   C     0.67076   0.06187   0.54527   0.00000  Uiso   1.00
C983   C     0.56509   0.02674   0.57816   0.00000  Uiso   1.00
C984   C     0.60486   0.04680   0.58029   0.00000  Uiso   1.00
C985   C     0.70902   0.11380   0.58042   0.00000  Uiso   1.00
C986   C     0.67721   0.08517   0.58530   0.00000  Uiso   1.00
C987   C     0.60713   0.07632   0.86468   0.00000  Uiso   1.00
C988   C     0.64473   0.09259   0.87156   0.00000  Uiso   1.00
C989   C     0.62844   0.05078   0.78444   0.00000  Uiso   1.00
C990   C     0.66500   0.06682   0.79109   0.00000  Uiso   1.00
C991   C     0.55913   0.03665   0.82418   0.00000  Uiso   1.00
C992   C     0.59893   0.05494   0.82222   0.00000  Uiso   1.00
C993   C     0.70772   0.11541   0.82990   0.00000  Uiso   1.00
C994   C     0.67228   0.09083   0.83226   0.00000  Uiso   1.00
C995   C     0.68683   0.19324   0.94904   0.00000  Uiso   1.00
C996   C     0.68526   0.19321   0.69970   0.00000  Uiso   1.00
C997   C     0.62004   0.21395   0.41074   0.00000  Uiso   1.00
C998   C     0.60260   0.37932   0.07559   0.00000  Uiso   1.00
C999   C     0.56473   0.36318   0.31725   0.00000  Uiso   1.00
C1000  C     0.61748   0.20802   0.16343   0.00000  Uiso   1.00
C1001  C     0.60314   0.38111   0.31931   0.00000  Uiso   1.00
C1002  C     0.58384   0.22913   0.16549   0.00000  Uiso   1.00
C1003  C     0.63326   0.37571   0.28168   0.00000  Uiso   1.00
C1004  C     0.64701   0.21036   0.20280   0.00000  Uiso   1.00
C1005  C     0.54501   0.28134   0.19842   0.00000  Uiso   1.00
C1006  C     0.57812   0.25477   0.20345   0.00000  Uiso   1.00
C1007  C     0.63709   0.23094   0.24739   0.00000  Uiso   1.00
C1008  C     0.60311   0.25456   0.24579   0.00000  Uiso   1.00
C1009  C     0.56267   0.36209   0.07452   0.00000  Uiso   1.00
C1010  C     0.63627   0.23344   0.49687   0.00000  Uiso   1.00
C1011  C     0.58638   0.23601   0.41157   0.00000  Uiso   1.00
C1012  C     0.63005   0.37473   0.03468   0.00000  Uiso   1.00
C1013  C     0.64702   0.21457   0.45159   0.00000  Uiso   1.00
C1014  C     0.54260   0.28157   0.45121   0.00000  Uiso   1.00
C1015  C     0.57608   0.25663   0.45326   0.00000  Uiso   1.00
C1016  C     0.60171   0.25165   0.00147   0.00000  Uiso   1.00
C1017  C     0.66489   0.39558   0.03401   0.00000  Uiso   1.00
C1018  C     0.60181   0.25457   0.49633   0.00000  Uiso   1.00
C1019  C     0.66830   0.39580   0.28714   0.00000  Uiso   1.00
C1020  C     0.62099   0.21583   0.91324   0.00000  Uiso   1.00
C1021  C     0.56464   0.36288   0.82266   0.00000  Uiso   1.00
C1022  C     0.60204   0.38232   0.57016   0.00000  Uiso   1.00
C1023  C     0.60250   0.38183   0.82404   0.00000  Uiso   1.00
C1024  C     0.58347   0.23058   0.66877   0.00000  Uiso   1.00
C1025  C     0.62904   0.38013   0.78144   0.00000  Uiso   1.00
C1026  C     0.64735   0.21382   0.70209   0.00000  Uiso   1.00
C1027  C     0.54659   0.28233   0.70341   0.00000  Uiso   1.00
C1028  C     0.57804   0.25611   0.70714   0.00000  Uiso   1.00
C1029  C     0.64279   0.23741   0.74095   0.00000  Uiso   1.00
C1030  C     0.60839   0.25802   0.74505   0.00000  Uiso   1.00
C1031  C     0.56417   0.36215   0.57063   0.00000  Uiso   1.00
C1032  C     0.66768   0.39775   0.53585   0.00000  Uiso   1.00
C1033  C     0.58642   0.23616   0.91473   0.00000  Uiso   1.00
C1034  C     0.63147   0.37886   0.53027   0.00000  Uiso   1.00
C1035  C     0.64894   0.21432   0.95364   0.00000  Uiso   1.00
C1036  C     0.54303   0.28080   0.95922   0.00000  Uiso   1.00
C1037  C     0.57654   0.25383   0.95932   0.00000  Uiso   1.00
C1038  C     0.61671   0.20862   0.66532   0.00000  Uiso   1.00
C1039  C     0.63919   0.23560   0.99560   0.00000  Uiso   1.00
C1040  C     0.66529   0.39990   0.78604   0.00000  Uiso   1.00
C1041  C     0.61446   0.39978   0.86774   0.00000  Uiso   1.00
C1042  C     0.60149   0.59049   0.24275   0.00000  Uiso   1.00
C1043  C     0.60930   0.40382   0.36065   0.00000  Uiso   1.00
C1044  C     0.63953   0.57234   0.49851   0.00000  Uiso   1.00
C1045  C     0.61860   0.54726   0.15903   0.00000  Uiso   1.00
C1046  C     0.58611   0.57105   0.15710   0.00000  Uiso   1.00
C1047  C     0.64841   0.41979   0.11768   0.00000  Uiso   1.00
C1048  C     0.68735   0.53267   0.19628   0.00000  Uiso   1.00
C1049  C     0.64750   0.55056   0.19651   0.00000  Uiso   1.00
C1050  C     0.63822   0.57250   0.24014   0.00000  Uiso   1.00
C1051  C     0.57748   0.58911   0.45997   0.00000  Uiso   1.00
C1052  C     0.70636   0.44540   0.07283   0.00000  Uiso   1.00
C1053  C     0.67473   0.41712   0.07605   0.00000  Uiso   1.00
C1054  C     0.62339   0.55150   0.41204   0.00000  Uiso   1.00
C1055  C     0.70597   0.44698   0.32946   0.00000  Uiso   1.00
C1056  C     0.58792   0.57043   0.41620   0.00000  Uiso   1.00
C1057  C     0.64488   0.42255   0.36672   0.00000  Uiso   1.00
C1058  C     0.68938   0.53947   0.44964   0.00000  Uiso   1.00
C1059  C     0.65039   0.55412   0.45308   0.00000  Uiso   1.00
C1060  C     0.67581   0.41832   0.32973   0.00000  Uiso   1.00
C1061  C     0.57562   0.59111   0.20047   0.00000  Uiso   1.00
C1062  C     0.61162   0.40094   0.11696   0.00000  Uiso   1.00
C1063  C     0.67706   0.41570   0.83120   0.00000  Uiso   1.00
C1064  C     0.61085   0.40278   0.61345   0.00000  Uiso   1.00
C1065  C     0.60008   0.58952   0.99568   0.00000  Uiso   1.00
C1066  C     0.61839   0.54318   0.67029   0.00000  Uiso   1.00
C1067  C     0.58438   0.56529   0.67170   0.00000  Uiso   1.00
C1068  C     0.64575   0.42190   0.61612   0.00000  Uiso   1.00
C1069  C     0.68445   0.52546   0.70778   0.00000  Uiso   1.00
C1070  C     0.64581   0.54407   0.71110   0.00000  Uiso   1.00
C1071  C     0.71126   0.44346   0.83300   0.00000  Uiso   1.00
C1072  C     0.63737   0.56580   0.75363   0.00000  Uiso   1.00
C1073  C     0.70838   0.44574   0.57628   0.00000  Uiso   1.00
C1074  C     0.67379   0.41931   0.57815   0.00000  Uiso   1.00
C1075  C     0.61871   0.54474   0.90947   0.00000  Uiso   1.00
C1076  C     0.58131   0.56338   0.91199   0.00000  Uiso   1.00
C1077  C     0.65200   0.41286   0.87487   0.00000  Uiso   1.00
C1078  C     0.68780   0.53106   0.95251   0.00000  Uiso   1.00
C1079  C     0.64735   0.54919   0.95173   0.00000  Uiso   1.00
C1080  C     0.57291   0.58659   0.95369   0.00000  Uiso   1.00
C1081  C     0.60157   0.58619   0.75768   0.00000  Uiso   1.00
C1082  C     0.63476   0.57049   0.99341   0.00000  Uiso   1.00
C1083  C     0.57590   0.58882   0.71286   0.00000  Uiso   1.00
C1084  C     0.60243   0.58729   0.50397   0.00000  Uiso   1.00
C1085  C     0.54449   0.61621   0.45558   0.00000  Uiso   1.00
C1086  C     0.54372   0.61728   0.19618   0.00000  Uiso   1.00
C1087  C     0.61015   0.73644   0.10712   0.00000  Uiso   1.00
C1088  C     0.64506   0.75535   0.11107   0.00000  Uiso   1.00
C1089  C     0.63039   0.71359   0.02516   0.00000  Uiso   1.00
C1090  C     0.66429   0.73526   0.02712   0.00000  Uiso   1.00
C1091  C     0.56323   0.69589   0.06388   0.00000  Uiso   1.00
C1092  C     0.60084   0.71613   0.06418   0.00000  Uiso   1.00
C1093  C     0.70573   0.78054   0.07163   0.00000  Uiso   1.00
C1094  C     0.67247   0.75597   0.07111   0.00000  Uiso   1.00
C1095  C     0.62046   0.72491   0.36535   0.00000  Uiso   1.00
C1096  C     0.65584   0.74342   0.36799   0.00000  Uiso   1.00
C1097  C     0.63609   0.70497   0.28076   0.00000  Uiso   1.00
C1098  C     0.67211   0.72496   0.28197   0.00000  Uiso   1.00
C1099  C     0.56922   0.68870   0.32151   0.00000  Uiso   1.00
C1100  C     0.60791   0.70750   0.32165   0.00000  Uiso   1.00
C1101  C     0.71192   0.77356   0.32683   0.00000  Uiso   1.00
C1102  C     0.68128   0.74580   0.32534   0.00000  Uiso   1.00
C1103  C     0.54520   0.61770   0.70610   0.00000  Uiso   1.00
C1104  C     0.61524   0.73071   0.62088   0.00000  Uiso   1.00
C1105  C     0.65123   0.74711   0.62711   0.00000  Uiso   1.00
C1106  C     0.63391   0.70349   0.53939   0.00000  Uiso   1.00
C1107  C     0.67157   0.72081   0.54487   0.00000  Uiso   1.00
C1108  C     0.56426   0.69419   0.57400   0.00000  Uiso   1.00
C1109  C     0.60454   0.70996   0.57770   0.00000  Uiso   1.00
C1110  C     0.70799   0.77351   0.57963   0.00000  Uiso   1.00
C1111  C     0.67736   0.74569   0.58486   0.00000  Uiso   1.00
C1112  C     0.54201   0.61495   0.94792   0.00000  Uiso   1.00
C1113  C     0.61075   0.73355   0.86631   0.00000  Uiso   1.00
C1114  C     0.64482   0.75238   0.86973   0.00000  Uiso   1.00
C1115  C     0.62817   0.71348   0.78346   0.00000  Uiso   1.00
C1116  C     0.66167   0.73574   0.78357   0.00000  Uiso   1.00
C1117  C     0.56240   0.69829   0.81865   0.00000  Uiso   1.00
C1118  C     0.60158   0.71587   0.82315   0.00000  Uiso   1.00
C1119  C     0.70187   0.78302   0.82910   0.00000  Uiso   1.00
C1120  C     0.66957   0.75633   0.82668   0.00000  Uiso   1.00
C1121  C     0.62022   0.88605   0.15869   0.00000  Uiso   1.00
C1122  C     0.58349   0.90497   0.16439   0.00000  Uiso   1.00
C1123  C     0.68799   0.86879   0.19628   0.00000  Uiso   1.00
C1124  C     0.64893   0.88936   0.19804   0.00000  Uiso   1.00
C1125  C     0.54472   0.95600   0.20525   0.00000  Uiso   1.00
C1126  C     0.57662   0.92746   0.20737   0.00000  Uiso   1.00
C1127  C     0.63837   0.90809   0.24139   0.00000  Uiso   1.00
C1128  C     0.60128   0.92352   0.24935   0.00000  Uiso   1.00
C1129  C     0.62046   0.87909   0.40841   0.00000  Uiso   1.00
C1130  C     0.58615   0.90167   0.40731   0.00000  Uiso   1.00
C1131  C     0.68609   0.86119   0.45058   0.00000  Uiso   1.00
C1132  C     0.64741   0.88087   0.44940   0.00000  Uiso   1.00
C1133  C     0.54174   0.94881   0.44868   0.00000  Uiso   1.00
C1134  C     0.57576   0.92183   0.44803   0.00000  Uiso   1.00
C1135  C     0.63563   0.90149   0.49264   0.00000  Uiso   1.00
C1136  C     0.59850   0.91795   0.49290   0.00000  Uiso   1.00
C1137  C     0.63652   0.90982   0.99433   0.00000  Uiso   1.00
C1138  C     0.62089   0.88007   0.66531   0.00000  Uiso   1.00
C1139  C     0.58517   0.89934   0.66769   0.00000  Uiso   1.00
C1140  C     0.68857   0.86721   0.70104   0.00000  Uiso   1.00
C1141  C     0.64909   0.88277   0.70585   0.00000  Uiso   1.00
C1142  C     0.54154   0.94857   0.70836   0.00000  Uiso   1.00
C1143  C     0.57611   0.92167   0.71121   0.00000  Uiso   1.00
C1144  C     0.64148   0.90511   0.74642   0.00000  Uiso   1.00
C1145  C     0.60524   0.92447   0.75009   0.00000  Uiso   1.00
C1146  C     0.61621   0.88100   0.91529   0.00000  Uiso   1.00
C1147  C     0.58032   0.89981   0.91917   0.00000  Uiso   1.00
C1148  C     0.68536   0.87111   0.94966   0.00000  Uiso   1.00
C1149  C     0.64629   0.88757   0.95246   0.00000  Uiso   1.00
C1150  C     0.53663   0.94840   0.95393   0.00000  Uiso   1.00
C1151  C     0.57042   0.92329   0.95890   0.00000  Uiso   1.00
C1152  C     0.59942   0.92745   0.99767   0.00000  Uiso   1.00
C1153  C     0.87961   0.11841   0.04012   0.00000  Uiso   1.00
C1154  C     0.91278   0.09631   0.04178   0.00000  Uiso   1.00
C1155  C     0.81381   0.13838   0.07850   0.00000  Uiso   1.00
C1156  C     0.85268   0.12083   0.08165   0.00000  Uiso   1.00
C1157  C     0.95374   0.04720   0.08405   0.00000  Uiso   1.00
C1158  C     0.92384   0.07818   0.08561   0.00000  Uiso   1.00
C1159  C     0.86281   0.10076   0.12437   0.00000  Uiso   1.00
C1160  C     0.89711   0.07826   0.12602   0.00000  Uiso   1.00
C1161  C     0.88136   0.12109   0.29104   0.00000  Uiso   1.00
C1162  C     0.91568   0.09869   0.29404   0.00000  Uiso   1.00
C1163  C     0.81335   0.13584   0.32258   0.00000  Uiso   1.00
C1164  C     0.85246   0.11668   0.32563   0.00000  Uiso   1.00
C1165  C     0.95940   0.05051   0.33287   0.00000  Uiso   1.00
C1166  C     0.92502   0.07593   0.33514   0.00000  Uiso   1.00
C1167  C     0.85810   0.09224   0.36578   0.00000  Uiso   1.00
C1168  C     0.89449   0.07367   0.37271   0.00000  Uiso   1.00
C1169  C     0.88005   0.11744   0.53607   0.00000  Uiso   1.00
C1170  C     0.91346   0.09494   0.53300   0.00000  Uiso   1.00
C1171  C     0.81234   0.13130   0.57718   0.00000  Uiso   1.00
C1172  C     0.85345   0.11372   0.57849   0.00000  Uiso   1.00
C1173  C     0.95740   0.04869   0.57368   0.00000  Uiso   1.00
C1174  C     0.92460   0.07600   0.57705   0.00000  Uiso   1.00
C1175  C     0.86657   0.09701   0.62358   0.00000  Uiso   1.00
C1176  C     0.90115   0.07769   0.62338   0.00000  Uiso   1.00
C1177  C     0.88240   0.12291   0.78881   0.00000  Uiso   1.00
C1178  C     0.91725   0.10278   0.79317   0.00000  Uiso   1.00
C1179  C     0.81467   0.13682   0.82620   0.00000  Uiso   1.00
C1180  C     0.85399   0.11881   0.82784   0.00000  Uiso   1.00
C1181  C     0.95532   0.05295   0.83419   0.00000  Uiso   1.00
C1182  C     0.92399   0.08087   0.83587   0.00000  Uiso   1.00
C1183  C     0.86098   0.09574   0.87024   0.00000  Uiso   1.00
C1184  C     0.89652   0.07956   0.87443   0.00000  Uiso   1.00
C1185  C     0.88264   0.26830   0.24110   0.00000  Uiso   1.00
C1186  C     0.84668   0.25194   0.24751   0.00000  Uiso   1.00
C1187  C     0.86403   0.29413   0.15949   0.00000  Uiso   1.00
C1188  C     0.82878   0.27249   0.16286   0.00000  Uiso   1.00
C1189  C     0.93474   0.30533   0.19554   0.00000  Uiso   1.00
C1190  C     0.89361   0.28920   0.19663   0.00000  Uiso   1.00
C1191  C     0.78821   0.22459   0.20397   0.00000  Uiso   1.00
C1192  C     0.82098   0.25118   0.20517   0.00000  Uiso   1.00
C1193  C     0.96085   0.38802   0.08186   0.00000  Uiso   1.00
C1194  C     0.87557   0.28643   0.40696   0.00000  Uiso   1.00
C1195  C     0.83931   0.26724   0.41141   0.00000  Uiso   1.00
C1196  C     0.94221   0.30036   0.44858   0.00000  Uiso   1.00
C1197  C     0.90214   0.28482   0.44872   0.00000  Uiso   1.00
C1198  C     0.79748   0.21854   0.45563   0.00000  Uiso   1.00
C1199  C     0.83160   0.24380   0.45461   0.00000  Uiso   1.00
C1200  C     0.95486   0.38634   0.32485   0.00000  Uiso   1.00
C1201  C     0.89301   0.26534   0.49225   0.00000  Uiso   1.00
C1202  C     0.85781   0.24394   0.49571   0.00000  Uiso   1.00
C1203  C     0.88291   0.27218   0.74766   0.00000  Uiso   1.00
C1204  C     0.84811   0.25255   0.75130   0.00000  Uiso   1.00
C1205  C     0.86535   0.29494   0.66290   0.00000  Uiso   1.00
C1206  C     0.82851   0.27803   0.67025   0.00000  Uiso   1.00
C1207  C     0.93492   0.30737   0.70302   0.00000  Uiso   1.00
C1208  C     0.89301   0.29304   0.70527   0.00000  Uiso   1.00
C1209  C     0.79115   0.22479   0.70756   0.00000  Uiso   1.00
C1210  C     0.82126   0.25386   0.71123   0.00000  Uiso   1.00
C1211  C     0.95532   0.38799   0.57696   0.00000  Uiso   1.00
C1212  C     0.87036   0.29159   0.91344   0.00000  Uiso   1.00
C1213  C     0.83535   0.27128   0.91118   0.00000  Uiso   1.00
C1214  C     0.93647   0.30557   0.95039   0.00000  Uiso   1.00
C1215  C     0.89719   0.28669   0.95267   0.00000  Uiso   1.00
C1216  C     0.79041   0.22315   0.95385   0.00000  Uiso   1.00
C1217  C     0.82507   0.24792   0.95428   0.00000  Uiso   1.00
C1218  C     0.96010   0.38800   0.83116   0.00000  Uiso   1.00
C1219  C     0.88694   0.26522   0.99518   0.00000  Uiso   1.00
C1220  C     0.85100   0.24709   0.99672   0.00000  Uiso   1.00
C1221  C     0.84663   0.58393   0.00216   0.00000  Uiso   1.00
C1222  C     0.82468   0.58038   0.45144   0.00000  Uiso   1.00
C1223  C     0.89702   0.41382   0.37202   0.00000  Uiso   1.00
C1224  C     0.86190   0.43334   0.37046   0.00000  Uiso   1.00
C1225  C     0.92496   0.41269   0.08463   0.00000  Uiso   1.00
C1226  C     0.89775   0.40960   0.12463   0.00000  Uiso   1.00
C1227  C     0.88188   0.45521   0.04186   0.00000  Uiso   1.00
C1228  C     0.84682   0.58132   0.49655   0.00000  Uiso   1.00
C1229  C     0.91708   0.43452   0.04209   0.00000  Uiso   1.00
C1230  C     0.85615   0.57617   0.24516   0.00000  Uiso   1.00
C1231  C     0.81246   0.46481   0.07448   0.00000  Uiso   1.00
C1232  C     0.85172   0.44804   0.07874   0.00000  Uiso   1.00
C1233  C     0.86070   0.42432   0.12023   0.00000  Uiso   1.00
C1234  C     0.85090   0.45306   0.32651   0.00000  Uiso   1.00
C1235  C     0.80086   0.54360   0.19947   0.00000  Uiso   1.00
C1236  C     0.83372   0.57123   0.20129   0.00000  Uiso   1.00
C1237  C     0.87913   0.45300   0.28523   0.00000  Uiso   1.00
C1238  C     0.79292   0.55466   0.45026   0.00000  Uiso   1.00
C1239  C     0.91383   0.43206   0.28718   0.00000  Uiso   1.00
C1240  C     0.81221   0.47173   0.32285   0.00000  Uiso   1.00
C1241  C     0.92338   0.41330   0.33007   0.00000  Uiso   1.00
C1242  C     0.84099   0.59271   0.15826   0.00000  Uiso   1.00
C1243  C     0.88874   0.59788   0.24282   0.00000  Uiso   1.00
C1244  C     0.86989   0.44009   0.87368   0.00000  Uiso   1.00
C1245  C     0.82226   0.58019   0.95805   0.00000  Uiso   1.00
C1246  C     0.79023   0.55149   0.95564   0.00000  Uiso   1.00
C1247  C     0.86064   0.46072   0.82876   0.00000  Uiso   1.00
C1248  C     0.87772   0.45831   0.53728   0.00000  Uiso   1.00
C1249  C     0.91348   0.43699   0.53726   0.00000  Uiso   1.00
C1250  C     0.84620   0.58135   0.74767   0.00000  Uiso   1.00
C1251  C     0.81277   0.47404   0.57418   0.00000  Uiso   1.00
C1252  C     0.85111   0.45683   0.57663   0.00000  Uiso   1.00
C1253  C     0.85973   0.43363   0.61817   0.00000  Uiso   1.00
C1254  C     0.92255   0.41487   0.57904   0.00000  Uiso   1.00
C1255  C     0.79066   0.55180   0.70280   0.00000  Uiso   1.00
C1256  C     0.82156   0.57956   0.70505   0.00000  Uiso   1.00
C1257  C     0.88646   0.45930   0.78742   0.00000  Uiso   1.00
C1258  C     0.92198   0.43950   0.79126   0.00000  Uiso   1.00
C1259  C     0.89588   0.41451   0.61926   0.00000  Uiso   1.00
C1260  C     0.81901   0.47455   0.82330   0.00000  Uiso   1.00
C1261  C     0.93078   0.41784   0.83419   0.00000  Uiso   1.00
C1262  C     0.90415   0.41994   0.87587   0.00000  Uiso   1.00
C1263  C     0.83283   0.59843   0.91400   0.00000  Uiso   1.00
C1264  C     0.87165   0.61834   0.15782   0.00000  Uiso   1.00
C1265  C     0.86777   0.62303   0.41092   0.00000  Uiso   1.00
C1266  C     0.93548   0.64019   0.19875   0.00000  Uiso   1.00
C1267  C     0.87755   0.78462   0.02969   0.00000  Uiso   1.00
C1268  C     0.91195   0.76264   0.03262   0.00000  Uiso   1.00
C1269  C     0.84991   0.78303   0.07100   0.00000  Uiso   1.00
C1270  C     0.95482   0.71823   0.07902   0.00000  Uiso   1.00
C1271  C     0.92165   0.74387   0.07771   0.00000  Uiso   1.00
C1272  C     0.85988   0.76598   0.11621   0.00000  Uiso   1.00
C1273  C     0.89501   0.74779   0.11988   0.00000  Uiso   1.00
C1274  C     0.93335   0.63858   0.45119   0.00000  Uiso   1.00
C1275  C     0.89277   0.62258   0.45428   0.00000  Uiso   1.00
C1276  C     0.88521   0.79152   0.28865   0.00000  Uiso   1.00
C1277  C     0.91939   0.77013   0.29461   0.00000  Uiso   1.00
C1278  C     0.85524   0.78758   0.32453   0.00000  Uiso   1.00
C1279  C     0.95794   0.72115   0.33352   0.00000  Uiso   1.00
C1280  C     0.92504   0.74591   0.33556   0.00000  Uiso   1.00
C1281  C     0.86245   0.76733   0.36940   0.00000  Uiso   1.00
C1282  C     0.89810   0.74789   0.37656   0.00000  Uiso   1.00
C1283  C     0.89749   0.61822   0.20040   0.00000  Uiso   1.00
C1284  C     0.88211   0.60130   0.49629   0.00000  Uiso   1.00
C1285  C     0.83360   0.60120   0.40926   0.00000  Uiso   1.00
C1286  C     0.88264   0.60156   0.00027   0.00000  Uiso   1.00
C1287  C     0.86551   0.62301   0.66559   0.00000  Uiso   1.00
C1288  C     0.89533   0.61911   0.95548   0.00000  Uiso   1.00
C1289  C     0.89249   0.62080   0.70692   0.00000  Uiso   1.00
C1290  C     0.87806   0.78223   0.53844   0.00000  Uiso   1.00
C1291  C     0.93148   0.64033   0.70628   0.00000  Uiso   1.00
C1292  C     0.86867   0.61888   0.91096   0.00000  Uiso   1.00
C1293  C     0.91076   0.76043   0.53963   0.00000  Uiso   1.00
C1294  C     0.85069   0.78182   0.57923   0.00000  Uiso   1.00
C1295  C     0.95771   0.71653   0.58063   0.00000  Uiso   1.00
C1296  C     0.92271   0.74190   0.58381   0.00000  Uiso   1.00
C1297  C     0.86201   0.76278   0.62504   0.00000  Uiso   1.00
C1298  C     0.89676   0.74178   0.62389   0.00000  Uiso   1.00
C1299  C     0.93471   0.63768   0.95453   0.00000  Uiso   1.00
C1300  C     0.87943   0.79146   0.79368   0.00000  Uiso   1.00
C1301  C     0.91355   0.76900   0.79503   0.00000  Uiso   1.00
C1302  C     0.84752   0.78491   0.82961   0.00000  Uiso   1.00
C1303  C     0.95417   0.72020   0.83338   0.00000  Uiso   1.00
C1304  C     0.92105   0.74632   0.83736   0.00000  Uiso   1.00
C1305  C     0.85358   0.76063   0.86888   0.00000  Uiso   1.00
C1306  C     0.89166   0.74264   0.87384   0.00000  Uiso   1.00
C1307  C     0.83174   0.60141   0.66501   0.00000  Uiso   1.00
C1308  C     0.81062   0.79824   0.57590   0.00000  Uiso   1.00
C1309  C     0.88124   0.60038   0.74759   0.00000  Uiso   1.00
C1310  C     0.81707   0.80656   0.32184   0.00000  Uiso   1.00
C1311  C     0.88659   0.92822   0.49731   0.00000  Uiso   1.00
C1312  C     0.88830   0.92751   0.24560   0.00000  Uiso   1.00
C1313  C     0.85347   0.90964   0.24647   0.00000  Uiso   1.00
C1314  C     0.87266   0.94855   0.15962   0.00000  Uiso   1.00
C1315  C     0.83873   0.92935   0.16217   0.00000  Uiso   1.00
C1316  C     0.93703   0.96719   0.19969   0.00000  Uiso   1.00
C1317  C     0.89892   0.94798   0.20109   0.00000  Uiso   1.00
C1318  C     0.79662   0.88143   0.20270   0.00000  Uiso   1.00
C1319  C     0.82787   0.90887   0.20514   0.00000  Uiso   1.00
C1320  C     0.86842   0.94985   0.41250   0.00000  Uiso   1.00
C1321  C     0.83424   0.93037   0.41647   0.00000  Uiso   1.00
C1322  C     0.93419   0.96609   0.45185   0.00000  Uiso   1.00
C1323  C     0.89610   0.94744   0.45251   0.00000  Uiso   1.00
C1324  C     0.79328   0.88033   0.45673   0.00000  Uiso   1.00
C1325  C     0.82586   0.90816   0.46018   0.00000  Uiso   1.00
C1326  C     0.81321   0.80395   0.06935   0.00000  Uiso   1.00
C1327  C     0.88740   0.92637   0.74327   0.00000  Uiso   1.00
C1328  C     0.84976   0.90964   0.74613   0.00000  Uiso   1.00
C1329  C     0.86767   0.95129   0.66211   0.00000  Uiso   1.00
C1330  C     0.83216   0.93156   0.66347   0.00000  Uiso   1.00
C1331  C     0.93484   0.96864   0.70050   0.00000  Uiso   1.00
C1332  C     0.89576   0.94860   0.70196   0.00000  Uiso   1.00
C1333  C     0.79450   0.87919   0.70484   0.00000  Uiso   1.00
C1334  C     0.82423   0.90915   0.70584   0.00000  Uiso   1.00
C1335  C     0.88577   0.93046   0.99018   0.00000  Uiso   1.00
C1336  C     0.87343   0.95108   0.90345   0.00000  Uiso   1.00
C1337  C     0.83815   0.93170   0.90531   0.00000  Uiso   1.00
C1338  C     0.93568   0.97135   0.94718   0.00000  Uiso   1.00
C1339  C     0.89738   0.95316   0.94776   0.00000  Uiso   1.00
C1340  C     0.79200   0.88556   0.94667   0.00000  Uiso   1.00
C1341  C     0.82501   0.91225   0.94914   0.00000  Uiso   1.00
C1342  C     0.84962   0.91112   0.99188   0.00000  Uiso   1.00
C1343  C     0.80851   0.80351   0.82756   0.00000  Uiso   1.00
C1344  C     0.85095   0.90877   0.50180   0.00000  Uiso   1.00
O1345  O     0.20048   0.19808   0.40467   0.00000  Uiso   1.00
O1346  O     0.04633   0.02836   0.28790   0.00000  Uiso   1.00
O1347  O     0.20419   0.19650   0.15503   0.00000  Uiso   1.00
O1348  O     0.21597   0.13475   0.36920   0.00000  Uiso   1.00
O1349  O     0.19933   0.18082   0.24125   0.00000  Uiso   1.00
O1350  O     0.05363   0.01080   0.36958   0.00000  Uiso   1.00
O1351  O     0.21492   0.12817   0.11901   0.00000  Uiso   1.00
O1352  O     0.22595   0.11667   0.28516   0.00000  Uiso   1.00
O1353  O     0.05128   0.01106   0.12150   0.00000  Uiso   1.00
O1354  O     0.21994   0.11814   0.03126   0.00000  Uiso   1.00
O1355  O     0.04470   0.02360   0.03524   0.00000  Uiso   1.00
O1356  O     0.19973   0.18315   0.48941   0.00000  Uiso   1.00
O1357  O     0.20115   0.19157   0.73706   0.00000  Uiso   1.00
O1358  O     0.04720   0.02374   0.86298   0.00000  Uiso   1.00
O1359  O     0.21725   0.12993   0.61435   0.00000  Uiso   1.00
O1360  O     0.22371   0.12303   0.77671   0.00000  Uiso   1.00
O1361  O     0.04901   0.01842   0.62058   0.00000  Uiso   1.00
O1362  O     0.21815   0.13065   0.86664   0.00000  Uiso   1.00
O1363  O     0.22027   0.12126   0.52635   0.00000  Uiso   1.00
O1364  O     0.04444   0.02275   0.53241   0.00000  Uiso   1.00
O1365  O     0.04109   0.03133   0.77740   0.00000  Uiso   1.00
O1366  O     0.20228   0.19979   0.64878   0.00000  Uiso   1.00
O1367  O     0.19905   0.18649   0.98747   0.00000  Uiso   1.00
O1368  O     0.04628   0.35835   0.27763   0.00000  Uiso   1.00
O1369  O     0.05265   0.34654   0.11815   0.00000  Uiso   1.00
O1370  O     0.02560   0.29204   0.24595   0.00000  Uiso   1.00
O1371  O     0.05146   0.35540   0.36610   0.00000  Uiso   1.00
O1372  O     0.02902   0.29411   0.49790   0.00000  Uiso   1.00
O1373  O     0.03560   0.29378   0.40726   0.00000  Uiso   1.00
O1374  O     0.04479   0.36648   0.03432   0.00000  Uiso   1.00
O1375  O     0.02458   0.28221   0.15854   0.00000  Uiso   1.00
O1376  O     0.03545   0.30197   0.99188   0.00000  Uiso   1.00
O1377  O     0.04719   0.36167   0.77865   0.00000  Uiso   1.00
O1378  O     0.05015   0.35026   0.62038   0.00000  Uiso   1.00
O1379  O     0.05177   0.34802   0.86608   0.00000  Uiso   1.00
O1380  O     0.02567   0.28789   0.90850   0.00000  Uiso   1.00
O1381  O     0.02518   0.29450   0.74392   0.00000  Uiso   1.00
O1382  O     0.04669   0.35974   0.53161   0.00000  Uiso   1.00
O1383  O     0.02468   0.29071   0.65648   0.00000  Uiso   1.00
O1384  O     0.20679   0.20364   0.90232   0.00000  Uiso   1.00
O1385  O     0.20573   0.51946   0.49125   0.00000  Uiso   1.00
O1386  O     0.22745   0.45676   0.27771   0.00000  Uiso   1.00
O1387  O     0.20580   0.53469   0.16040   0.00000  Uiso   1.00
O1388  O     0.21969   0.46529   0.36483   0.00000  Uiso   1.00
O1389  O     0.21971   0.46527   0.12625   0.00000  Uiso   1.00
O1390  O     0.20629   0.52889   0.40570   0.00000  Uiso   1.00
O1391  O     0.20049   0.51412   0.24408   0.00000  Uiso   1.00
O1392  O     0.22176   0.45729   0.03727   0.00000  Uiso   1.00
O1393  O     0.21744   0.46743   0.61842   0.00000  Uiso   1.00
O1394  O     0.20439   0.51876   0.74519   0.00000  Uiso   1.00
O1395  O     0.20047   0.51308   0.98934   0.00000  Uiso   1.00
O1396  O     0.22362   0.45688   0.53251   0.00000  Uiso   1.00
O1397  O     0.21598   0.46603   0.86901   0.00000  Uiso   1.00
O1398  O     0.20798   0.52838   0.65880   0.00000  Uiso   1.00
O1399  O     0.20307   0.52785   0.90363   0.00000  Uiso   1.00
O1400  O     0.22524   0.45570   0.77996   0.00000  Uiso   1.00
O1401  O     0.04547   0.69390   0.28383   0.00000  Uiso   1.00
O1402  O     0.03190   0.62518   0.40841   0.00000  Uiso   1.00
O1403  O     0.21954   0.79493   0.28615   0.00000  Uiso   1.00
O1404  O     0.03267   0.62658   0.16345   0.00000  Uiso   1.00
O1405  O     0.02729   0.62641   0.25108   0.00000  Uiso   1.00
O1406  O     0.04392   0.69688   0.03658   0.00000  Uiso   1.00
O1407  O     0.04865   0.69274   0.12568   0.00000  Uiso   1.00
O1408  O     0.21890   0.79496   0.03270   0.00000  Uiso   1.00
O1409  O     0.04645   0.68985   0.37256   0.00000  Uiso   1.00
O1410  O     0.02932   0.62471   0.49570   0.00000  Uiso   1.00
O1411  O     0.21746   0.79971   0.37280   0.00000  Uiso   1.00
O1412  O     0.03993   0.70207   0.78643   0.00000  Uiso   1.00
O1413  O     0.22123   0.79362   0.77850   0.00000  Uiso   1.00
O1414  O     0.02902   0.62475   0.91225   0.00000  Uiso   1.00
O1415  O     0.21925   0.79058   0.53214   0.00000  Uiso   1.00
O1416  O     0.02583   0.61776   0.66746   0.00000  Uiso   1.00
O1417  O     0.03207   0.63123   0.75239   0.00000  Uiso   1.00
O1418  O     0.04607   0.68997   0.53197   0.00000  Uiso   1.00
O1419  O     0.04946   0.68270   0.62085   0.00000  Uiso   1.00
O1420  O     0.04685   0.68810   0.87117   0.00000  Uiso   1.00
O1421  O     0.03364   0.63056   0.99925   0.00000  Uiso   1.00
O1422  O     0.21581   0.79782   0.62015   0.00000  Uiso   1.00
O1423  O     0.20640   0.85932   0.40665   0.00000  Uiso   1.00
O1424  O     0.21373   0.80405   0.12015   0.00000  Uiso   1.00
O1425  O     0.20171   0.84840   0.49498   0.00000  Uiso   1.00
O1426  O     0.02678   0.95078   0.16434   0.00000  Uiso   1.00
O1427  O     0.20594   0.86345   0.15749   0.00000  Uiso   1.00
O1428  O     0.03143   0.96031   0.25046   0.00000  Uiso   1.00
O1429  O     0.20426   0.85353   0.24476   0.00000  Uiso   1.00
O1430  O     0.02882   0.94983   0.40540   0.00000  Uiso   1.00
O1431  O     0.03050   0.95615   0.49226   0.00000  Uiso   1.00
O1432  O     0.02959   0.95853   0.91017   0.00000  Uiso   1.00
O1433  O     0.20040   0.86180   0.90260   0.00000  Uiso   1.00
O1434  O     0.02760   0.95475   0.65969   0.00000  Uiso   1.00
O1435  O     0.20606   0.86055   0.65860   0.00000  Uiso   1.00
O1436  O     0.03361   0.96269   0.74802   0.00000  Uiso   1.00
O1437  O     0.20295   0.85145   0.74733   0.00000  Uiso   1.00
O1438  O     0.02494   0.95717   0.99933   0.00000  Uiso   1.00
O1439  O     0.19832   0.84930   0.98986   0.00000  Uiso   1.00
O1440  O     0.21354   0.80077   0.86573   0.00000  Uiso   1.00
O1441  O     0.47527   0.05184   0.28690   0.00000  Uiso   1.00
O1442  O     0.29578   0.15385   0.11044   0.00000  Uiso   1.00
O1443  O     0.46280   0.03753   0.37191   0.00000  Uiso   1.00
O1444  O     0.29811   0.16054   0.35901   0.00000  Uiso   1.00
O1445  O     0.29207   0.13676   0.27642   0.00000  Uiso   1.00
O1446  O     0.46617   0.04405   0.03415   0.00000  Uiso   1.00
O1447  O     0.29414   0.14301   0.02491   0.00000  Uiso   1.00
O1448  O     0.46296   0.03788   0.12340   0.00000  Uiso   1.00
O1449  O     0.28313   0.19754   0.24184   0.00000  Uiso   1.00
O1450  O     0.29550   0.14830   0.77534   0.00000  Uiso   1.00
O1451  O     0.46949   0.04675   0.86785   0.00000  Uiso   1.00
O1452  O     0.29828   0.15109   0.86133   0.00000  Uiso   1.00
O1453  O     0.46647   0.04702   0.77774   0.00000  Uiso   1.00
O1454  O     0.29492   0.14969   0.61614   0.00000  Uiso   1.00
O1455  O     0.47205   0.04244   0.53081   0.00000  Uiso   1.00
O1456  O     0.29119   0.13889   0.52921   0.00000  Uiso   1.00
O1457  O     0.46274   0.03256   0.61822   0.00000  Uiso   1.00
O1458  O     0.27101   0.21551   0.40486   0.00000  Uiso   1.00
O1459  O     0.45307   0.31176   0.48571   0.00000  Uiso   1.00
O1460  O     0.45083   0.31495   0.23797   0.00000  Uiso   1.00
O1461  O     0.45866   0.29927   0.39950   0.00000  Uiso   1.00
O1462  O     0.45612   0.30159   0.15318   0.00000  Uiso   1.00
O1463  O     0.47123   0.37939   0.03012   0.00000  Uiso   1.00
O1464  O     0.46716   0.37086   0.11808   0.00000  Uiso   1.00
O1465  O     0.47897   0.38094   0.27879   0.00000  Uiso   1.00
O1466  O     0.46724   0.36669   0.36273   0.00000  Uiso   1.00
O1467  O     0.27290   0.21003   0.15490   0.00000  Uiso   1.00
O1468  O     0.28433   0.20244   0.48931   0.00000  Uiso   1.00
O1469  O     0.47394   0.37643   0.78497   0.00000  Uiso   1.00
O1470  O     0.46508   0.36304   0.87142   0.00000  Uiso   1.00
O1471  O     0.45367   0.31169   0.74277   0.00000  Uiso   1.00
O1472  O     0.45769   0.30054   0.90457   0.00000  Uiso   1.00
O1473  O     0.28108   0.20500   0.74065   0.00000  Uiso   1.00
O1474  O     0.45490   0.30391   0.65516   0.00000  Uiso   1.00
O1475  O     0.47113   0.37629   0.53161   0.00000  Uiso   1.00
O1476  O     0.47457   0.37293   0.62059   0.00000  Uiso   1.00
O1477  O     0.28024   0.20681   0.65373   0.00000  Uiso   1.00
O1478  O     0.28327   0.20727   0.90550   0.00000  Uiso   1.00
O1479  O     0.44854   0.31282   0.99092   0.00000  Uiso   1.00
O1480  O     0.27982   0.20365   0.99459   0.00000  Uiso   1.00
O1481  O     0.29992   0.47944   0.37042   0.00000  Uiso   1.00
O1482  O     0.27736   0.54910   0.15656   0.00000  Uiso   1.00
O1483  O     0.28019   0.54152   0.24712   0.00000  Uiso   1.00
O1484  O     0.29871   0.47635   0.28066   0.00000  Uiso   1.00
O1485  O     0.28195   0.54379   0.40890   0.00000  Uiso   1.00
O1486  O     0.29798   0.48963   0.11700   0.00000  Uiso   1.00
O1487  O     0.29326   0.46935   0.03138   0.00000  Uiso   1.00
O1488  O     0.29102   0.53131   0.49362   0.00000  Uiso   1.00
O1489  O     0.30048   0.48090   0.61921   0.00000  Uiso   1.00
O1490  O     0.29993   0.48055   0.87291   0.00000  Uiso   1.00
O1491  O     0.29828   0.47148   0.78543   0.00000  Uiso   1.00
O1492  O     0.29350   0.46436   0.53225   0.00000  Uiso   1.00
O1493  O     0.27877   0.53642   0.99774   0.00000  Uiso   1.00
O1494  O     0.27253   0.54755   0.91043   0.00000  Uiso   1.00
O1495  O     0.28000   0.54424   0.65754   0.00000  Uiso   1.00
O1496  O     0.28438   0.53563   0.74360   0.00000  Uiso   1.00
O1497  O     0.47159   0.70631   0.36807   0.00000  Uiso   1.00
O1498  O     0.45629   0.63767   0.15180   0.00000  Uiso   1.00
O1499  O     0.45870   0.63588   0.40337   0.00000  Uiso   1.00
O1500  O     0.47327   0.71640   0.02734   0.00000  Uiso   1.00
O1501  O     0.47795   0.71562   0.28030   0.00000  Uiso   1.00
O1502  O     0.45331   0.64625   0.48924   0.00000  Uiso   1.00
O1503  O     0.46582   0.70817   0.11647   0.00000  Uiso   1.00
O1504  O     0.45270   0.64859   0.23879   0.00000  Uiso   1.00
O1505  O     0.46920   0.71069   0.53096   0.00000  Uiso   1.00
O1506  O     0.46204   0.70053   0.86609   0.00000  Uiso   1.00
O1507  O     0.45196   0.63283   0.90299   0.00000  Uiso   1.00
O1508  O     0.47098   0.71411   0.78042   0.00000  Uiso   1.00
O1509  O     0.44543   0.65202   0.98622   0.00000  Uiso   1.00
O1510  O     0.46847   0.70165   0.62094   0.00000  Uiso   1.00
O1511  O     0.44933   0.65174   0.74061   0.00000  Uiso   1.00
O1512  O     0.45751   0.63220   0.65803   0.00000  Uiso   1.00
O1513  O     0.30130   0.81518   0.37040   0.00000  Uiso   1.00
O1514  O     0.45801   0.96929   0.40922   0.00000  Uiso   1.00
O1515  O     0.28161   0.87865   0.41379   0.00000  Uiso   1.00
O1516  O     0.28516   0.87208   0.24708   0.00000  Uiso   1.00
O1517  O     0.44826   0.98812   0.24515   0.00000  Uiso   1.00
O1518  O     0.30030   0.81838   0.11888   0.00000  Uiso   1.00
O1519  O     0.27488   0.88364   0.15973   0.00000  Uiso   1.00
O1520  O     0.45806   0.97226   0.16097   0.00000  Uiso   1.00
O1521  O     0.29118   0.80648   0.03138   0.00000  Uiso   1.00
O1522  O     0.44799   0.98285   0.49570   0.00000  Uiso   1.00
O1523  O     0.29796   0.80494   0.28301   0.00000  Uiso   1.00
O1524  O     0.44924   0.98009   0.90446   0.00000  Uiso   1.00
O1525  O     0.29920   0.81161   0.78008   0.00000  Uiso   1.00
O1526  O     0.27612   0.88313   0.90472   0.00000  Uiso   1.00
O1527  O     0.29824   0.81164   0.62321   0.00000  Uiso   1.00
O1528  O     0.28071   0.87496   0.74485   0.00000  Uiso   1.00
O1529  O     0.44804   0.98069   0.98964   0.00000  Uiso   1.00
O1530  O     0.44738   0.98807   0.73936   0.00000  Uiso   1.00
O1531  O     0.29510   0.81169   0.86877   0.00000  Uiso   1.00
O1532  O     0.27784   0.87999   0.65543   0.00000  Uiso   1.00
O1533  O     0.45235   0.97197   0.65568   0.00000  Uiso   1.00
O1534  O     0.27600   0.87584   0.99406   0.00000  Uiso   1.00
O1535  O     0.29604   0.80677   0.53512   0.00000  Uiso   1.00
O1536  O     0.27580   0.87502   0.50100   0.00000  Uiso   1.00
O1537  O     0.70101   0.18473   0.49607   0.00000  Uiso   1.00
O1538  O     0.54837   0.01910   0.36802   0.00000  Uiso   1.00
O1539  O     0.72041   0.13015   0.36975   0.00000  Uiso   1.00
O1540  O     0.71958   0.12924   0.11957   0.00000  Uiso   1.00
O1541  O     0.70131   0.18457   0.24403   0.00000  Uiso   1.00
O1542  O     0.54669   0.02089   0.11677   0.00000  Uiso   1.00
O1543  O     0.54380   0.03192   0.28059   0.00000  Uiso   1.00
O1544  O     0.72010   0.12567   0.03181   0.00000  Uiso   1.00
O1545  O     0.54456   0.02516   0.02902   0.00000  Uiso   1.00
O1546  O     0.70495   0.19282   0.15749   0.00000  Uiso   1.00
O1547  O     0.71878   0.13005   0.28167   0.00000  Uiso   1.00
O1548  O     0.70504   0.18836   0.40580   0.00000  Uiso   1.00
O1549  O     0.53946   0.03535   0.77984   0.00000  Uiso   1.00
O1550  O     0.54496   0.02375   0.86735   0.00000  Uiso   1.00
O1551  O     0.72154   0.12819   0.87290   0.00000  Uiso   1.00
O1552  O     0.70144   0.18403   0.74293   0.00000  Uiso   1.00
O1553  O     0.71868   0.13090   0.62356   0.00000  Uiso   1.00
O1554  O     0.54791   0.01531   0.61965   0.00000  Uiso   1.00
O1555  O     0.71719   0.12784   0.78442   0.00000  Uiso   1.00
O1556  O     0.72045   0.12520   0.53479   0.00000  Uiso   1.00
O1557  O     0.54699   0.02478   0.53384   0.00000  Uiso   1.00
O1558  O     0.70423   0.19100   0.90536   0.00000  Uiso   1.00
O1559  O     0.70261   0.18398   0.99376   0.00000  Uiso   1.00
O1560  O     0.70501   0.18949   0.65480   0.00000  Uiso   1.00
O1561  O     0.54791   0.35735   0.27268   0.00000  Uiso   1.00
O1562  O     0.54846   0.35194   0.36051   0.00000  Uiso   1.00
O1563  O     0.53556   0.29611   0.40528   0.00000  Uiso   1.00
O1564  O     0.54930   0.34690   0.11752   0.00000  Uiso   1.00
O1565  O     0.53539   0.30030   0.23992   0.00000  Uiso   1.00
O1566  O     0.54358   0.36247   0.03126   0.00000  Uiso   1.00
O1567  O     0.52953   0.29102   0.15285   0.00000  Uiso   1.00
O1568  O     0.52841   0.29506   0.49351   0.00000  Uiso   1.00
O1569  O     0.54486   0.36181   0.77998   0.00000  Uiso   1.00
O1570  O     0.55224   0.34691   0.86482   0.00000  Uiso   1.00
O1571  O     0.52975   0.28882   0.91272   0.00000  Uiso   1.00
O1572  O     0.55020   0.35079   0.61685   0.00000  Uiso   1.00
O1573  O     0.54629   0.35772   0.52485   0.00000  Uiso   1.00
O1574  O     0.53775   0.29925   0.74600   0.00000  Uiso   1.00
O1575  O     0.53350   0.29287   0.65792   0.00000  Uiso   1.00
O1576  O     0.53367   0.29956   0.99935   0.00000  Uiso   1.00
O1577  O     0.72473   0.45385   0.28650   0.00000  Uiso   1.00
O1578  O     0.71844   0.46128   0.11544   0.00000  Uiso   1.00
O1579  O     0.71135   0.46734   0.37097   0.00000  Uiso   1.00
O1580  O     0.70755   0.52813   0.15435   0.00000  Uiso   1.00
O1581  O     0.70295   0.52440   0.49155   0.00000  Uiso   1.00
O1582  O     0.72043   0.45211   0.02775   0.00000  Uiso   1.00
O1583  O     0.70009   0.52115   0.24159   0.00000  Uiso   1.00
O1584  O     0.70832   0.53774   0.40385   0.00000  Uiso   1.00
O1585  O     0.71568   0.46433   0.61802   0.00000  Uiso   1.00
O1586  O     0.73168   0.44860   0.78951   0.00000  Uiso   1.00
O1587  O     0.70749   0.52931   0.90883   0.00000  Uiso   1.00
O1588  O     0.69935   0.50670   0.74738   0.00000  Uiso   1.00
O1589  O     0.70411   0.53140   0.66511   0.00000  Uiso   1.00
O1590  O     0.71818   0.46315   0.87243   0.00000  Uiso   1.00
O1591  O     0.72251   0.45457   0.53028   0.00000  Uiso   1.00
O1592  O     0.70289   0.51847   0.99587   0.00000  Uiso   1.00
O1593  O     0.54974   0.68853   0.27764   0.00000  Uiso   1.00
O1594  O     0.54427   0.69109   0.02117   0.00000  Uiso   1.00
O1595  O     0.72295   0.78688   0.28189   0.00000  Uiso   1.00
O1596  O     0.55149   0.67970   0.36545   0.00000  Uiso   1.00
O1597  O     0.71818   0.79411   0.11482   0.00000  Uiso   1.00
O1598  O     0.53019   0.62610   0.14984   0.00000  Uiso   1.00
O1599  O     0.53206   0.63192   0.23958   0.00000  Uiso   1.00
O1600  O     0.53211   0.62562   0.40986   0.00000  Uiso   1.00
O1601  O     0.54890   0.68429   0.10829   0.00000  Uiso   1.00
O1602  O     0.71873   0.79082   0.02658   0.00000  Uiso   1.00
O1603  O     0.72087   0.78812   0.37055   0.00000  Uiso   1.00
O1604  O     0.53540   0.63534   0.49597   0.00000  Uiso   1.00
O1605  O     0.53012   0.62532   0.90129   0.00000  Uiso   1.00
O1606  O     0.54195   0.70052   0.77719   0.00000  Uiso   1.00
O1607  O     0.52793   0.63204   0.99005   0.00000  Uiso   1.00
O1608  O     0.71905   0.78462   0.53367   0.00000  Uiso   1.00
O1609  O     0.70748   0.79903   0.87257   0.00000  Uiso   1.00
O1610  O     0.71670   0.79021   0.62423   0.00000  Uiso   1.00
O1611  O     0.52957   0.62362   0.66092   0.00000  Uiso   1.00
O1612  O     0.53657   0.63930   0.74415   0.00000  Uiso   1.00
O1613  O     0.54597   0.68218   0.86233   0.00000  Uiso   1.00
O1614  O     0.55018   0.67884   0.61615   0.00000  Uiso   1.00
O1615  O     0.54417   0.69789   0.53189   0.00000  Uiso   1.00
O1616  O     0.72201   0.78889   0.78846   0.00000  Uiso   1.00
O1617  O     0.52786   0.95983   0.40374   0.00000  Uiso   1.00
O1618  O     0.52877   0.96303   0.15955   0.00000  Uiso   1.00
O1619  O     0.70490   0.86317   0.15067   0.00000  Uiso   1.00
O1620  O     0.53565   0.97352   0.24798   0.00000  Uiso   1.00
O1621  O     0.70477   0.85686   0.23896   0.00000  Uiso   1.00
O1622  O     0.70512   0.85818   0.40670   0.00000  Uiso   1.00
O1623  O     0.53205   0.96534   0.49201   0.00000  Uiso   1.00
O1624  O     0.70096   0.85029   0.49476   0.00000  Uiso   1.00
O1625  O     0.70208   0.86661   0.90635   0.00000  Uiso   1.00
O1626  O     0.52724   0.96536   0.99722   0.00000  Uiso   1.00
O1627  O     0.52787   0.96354   0.90982   0.00000  Uiso   1.00
O1628  O     0.52475   0.95557   0.66350   0.00000  Uiso   1.00
O1629  O     0.70721   0.86307   0.65785   0.00000  Uiso   1.00
O1630  O     0.53131   0.96747   0.74907   0.00000  Uiso   1.00
O1631  O     0.69967   0.85095   0.74310   0.00000  Uiso   1.00
O1632  O     0.70114   0.85838   0.99279   0.00000  Uiso   1.00
O1633  O     0.96961   0.03275   0.37511   0.00000  Uiso   1.00
O1634  O     0.79336   0.13852   0.28015   0.00000  Uiso   1.00
O1635  O     0.79895   0.14687   0.36996   0.00000  Uiso   1.00
O1636  O     0.79928   0.14931   0.12180   0.00000  Uiso   1.00
O1637  O     0.97118   0.04081   0.28762   0.00000  Uiso   1.00
O1638  O     0.96419   0.03476   0.03744   0.00000  Uiso   1.00
O1639  O     0.79172   0.13521   0.03756   0.00000  Uiso   1.00
O1640  O     0.96866   0.03313   0.12533   0.00000  Uiso   1.00
O1641  O     0.79985   0.14524   0.62118   0.00000  Uiso   1.00
O1642  O     0.96551   0.03904   0.78860   0.00000  Uiso   1.00
O1643  O     0.80145   0.15110   0.86861   0.00000  Uiso   1.00
O1644  O     0.96345   0.03543   0.87640   0.00000  Uiso   1.00
O1645  O     0.79546   0.13688   0.78299   0.00000  Uiso   1.00
O1646  O     0.96688   0.03675   0.52919   0.00000  Uiso   1.00
O1647  O     0.79367   0.13591   0.53363   0.00000  Uiso   1.00
O1648  O     0.97008   0.03325   0.61694   0.00000  Uiso   1.00
O1649  O     0.77868   0.20791   0.24564   0.00000  Uiso   1.00
O1650  O     0.77878   0.21400   0.15752   0.00000  Uiso   1.00
O1651  O     0.96835   0.37066   0.36647   0.00000  Uiso   1.00
O1652  O     0.78828   0.20273   0.49889   0.00000  Uiso   1.00
O1653  O     0.95121   0.31807   0.49021   0.00000  Uiso   1.00
O1654  O     0.95048   0.31554   0.23942   0.00000  Uiso   1.00
O1655  O     0.96168   0.30335   0.40517   0.00000  Uiso   1.00
O1656  O     0.95394   0.30438   0.15155   0.00000  Uiso   1.00
O1657  O     0.97241   0.37916   0.03528   0.00000  Uiso   1.00
O1658  O     0.96997   0.36891   0.12322   0.00000  Uiso   1.00
O1659  O     0.96793   0.37692   0.27813   0.00000  Uiso   1.00
O1660  O     0.78330   0.20993   0.40999   0.00000  Uiso   1.00
O1661  O     0.95213   0.31795   0.99329   0.00000  Uiso   1.00
O1662  O     0.97291   0.37935   0.78299   0.00000  Uiso   1.00
O1663  O     0.77917   0.20990   0.90886   0.00000  Uiso   1.00
O1664  O     0.78062   0.21265   0.66094   0.00000  Uiso   1.00
O1665  O     0.95503   0.30536   0.90604   0.00000  Uiso   1.00
O1666  O     0.94944   0.32352   0.74329   0.00000  Uiso   1.00
O1667  O     0.95353   0.30414   0.65865   0.00000  Uiso   1.00
O1668  O     0.97067   0.37793   0.53119   0.00000  Uiso   1.00
O1669  O     0.96439   0.37198   0.61975   0.00000  Uiso   1.00
O1670  O     0.77861   0.20967   0.75080   0.00000  Uiso   1.00
O1671  O     0.96813   0.36948   0.87287   0.00000  Uiso   1.00
O1672  O     0.78075   0.20634   0.99718   0.00000  Uiso   1.00
O1673  O     0.79297   0.46522   0.03161   0.00000  Uiso   1.00
O1674  O     0.79572   0.48360   0.36707   0.00000  Uiso   1.00
O1675  O     0.79723   0.47620   0.11833   0.00000  Uiso   1.00
O1676  O     0.79511   0.47492   0.27786   0.00000  Uiso   1.00
O1677  O     0.78078   0.54453   0.40569   0.00000  Uiso   1.00
O1678  O     0.78797   0.53328   0.15396   0.00000  Uiso   1.00
O1679  O     0.78702   0.53042   0.24236   0.00000  Uiso   1.00
O1680  O     0.78223   0.53684   0.49352   0.00000  Uiso   1.00
O1681  O     0.79469   0.47531   0.53020   0.00000  Uiso   1.00
O1682  O     0.77607   0.54263   0.65776   0.00000  Uiso   1.00
O1683  O     0.80024   0.48637   0.86480   0.00000  Uiso   1.00
O1684  O     0.80230   0.47598   0.77753   0.00000  Uiso   1.00
O1685  O     0.77870   0.53891   0.91007   0.00000  Uiso   1.00
O1686  O     0.79725   0.48404   0.61814   0.00000  Uiso   1.00
O1687  O     0.78160   0.53417   0.74508   0.00000  Uiso   1.00
O1688  O     0.78433   0.53185   0.99822   0.00000  Uiso   1.00
O1689  O     0.96674   0.70220   0.37457   0.00000  Uiso   1.00
O1690  O     0.95261   0.64008   0.40793   0.00000  Uiso   1.00
O1691  O     0.97247   0.71082   0.28980   0.00000  Uiso   1.00
O1692  O     0.96935   0.70771   0.03361   0.00000  Uiso   1.00
O1693  O     0.94998   0.64943   0.49543   0.00000  Uiso   1.00
O1694  O     0.95547   0.63986   0.15561   0.00000  Uiso   1.00
O1695  O     0.96677   0.70447   0.12275   0.00000  Uiso   1.00
O1696  O     0.94886   0.65318   0.24317   0.00000  Uiso   1.00
O1697  O     0.96569   0.70253   0.87251   0.00000  Uiso   1.00
O1698  O     0.95205   0.64539   0.90907   0.00000  Uiso   1.00
O1699  O     0.96859   0.71083   0.78823   0.00000  Uiso   1.00
O1700  O     0.96509   0.69730   0.62312   0.00000  Uiso   1.00
O1701  O     0.95215   0.63848   0.66404   0.00000  Uiso   1.00
O1702  O     0.97344   0.70621   0.53702   0.00000  Uiso   1.00
O1703  O     0.94835   0.65151   0.74930   0.00000  Uiso   1.00
O1704  O     0.95313   0.64338   0.99927   0.00000  Uiso   1.00
O1705  O     0.79770   0.81438   0.11235   0.00000  Uiso   1.00
O1706  O     0.78054   0.87022   0.41218   0.00000  Uiso   1.00
O1707  O     0.78647   0.86343   0.24425   0.00000  Uiso   1.00
O1708  O     0.95068   0.98311   0.24179   0.00000  Uiso   1.00
O1709  O     0.95496   0.96941   0.40871   0.00000  Uiso   1.00
O1710  O     0.78391   0.87133   0.15668   0.00000  Uiso   1.00
O1711  O     0.95785   0.96693   0.15743   0.00000  Uiso   1.00
O1712  O     0.95208   0.97416   0.49448   0.00000  Uiso   1.00
O1713  O     0.80002   0.81485   0.36628   0.00000  Uiso   1.00
O1714  O     0.79851   0.80955   0.27730   0.00000  Uiso   1.00
O1715  O     0.79604   0.80520   0.02527   0.00000  Uiso   1.00
O1716  O     0.78317   0.86490   0.49938   0.00000  Uiso   1.00
O1717  O     0.79622   0.81147   0.61757   0.00000  Uiso   1.00
O1718  O     0.79429   0.80060   0.53018   0.00000  Uiso   1.00
O1719  O     0.79409   0.81906   0.86863   0.00000  Uiso   1.00
O1720  O     0.95525   0.97279   0.90538   0.00000  Uiso   1.00
O1721  O     0.79111   0.80493   0.78300   0.00000  Uiso   1.00
O1722  O     0.78479   0.86425   0.74830   0.00000  Uiso   1.00
O1723  O     0.77387   0.87868   0.90240   0.00000  Uiso   1.00
O1724  O     0.95287   0.97555   0.74319   0.00000  Uiso   1.00
O1725  O     0.78086   0.86796   0.65968   0.00000  Uiso   1.00
O1726  O     0.95227   0.97318   0.65487   0.00000  Uiso   1.00
O1727  O     0.94937   0.98217   0.99260   0.00000  Uiso   1.00
O1728  O     0.78547   0.86641   0.98857   0.00000  Uiso   1.00
O1729  O     0.01371   0.01521   0.44593   0.00000  Uiso   1.00
O1730  O     0.24807   0.14405   0.19195   0.00000  Uiso   1.00
O1731  O     0.22979   0.18749   0.06641   0.00000  Uiso   1.00
O1732  O     0.23594   0.18858   0.31524   0.00000  Uiso   1.00
O1733  O     0.00903   0.01863   0.19962   0.00000  Uiso   1.00
O1734  O     0.00420   0.02120   0.69824   0.00000  Uiso   1.00
O1735  O     0.23579   0.19069   0.56658   0.00000  Uiso   1.00
O1736  O     0.01436   0.01702   0.95101   0.00000  Uiso   1.00
O1737  O     0.23429   0.19039   0.81836   0.00000  Uiso   1.00
O1738  O     0.24232   0.14480   0.69284   0.00000  Uiso   1.00
O1739  O     0.24634   0.14427   0.94270   0.00000  Uiso   1.00
O1740  O     0.01784   0.35035   0.19533   0.00000  Uiso   1.00
O1741  O     0.01169   0.35552   0.44703   0.00000  Uiso   1.00
O1742  O     0.00113   0.31051   0.31980   0.00000  Uiso   1.00
O1743  O     0.00222   0.30752   0.06823   0.00000  Uiso   1.00
O1744  O     0.01210   0.35484   0.69489   0.00000  Uiso   1.00
O1745  O     0.01199   0.35493   0.94716   0.00000  Uiso   1.00
O1746  O     0.24843   0.52543   0.32223   0.00000  Uiso   1.00
O1747  O     0.24325   0.52390   0.06923   0.00000  Uiso   1.00
O1748  O     0.01127   0.69051   0.20310   0.00000  Uiso   1.00
O1749  O     0.00517   0.64434   0.07620   0.00000  Uiso   1.00
O1750  O     0.01001   0.68490   0.45368   0.00000  Uiso   1.00
O1751  O     0.01242   0.68820   0.95178   0.00000  Uiso   1.00
O1752  O     0.00032   0.64125   0.57861   0.00000  Uiso   1.00
O1753  O     0.01158   0.68680   0.69894   0.00000  Uiso   1.00
O1754  O     0.00025   0.64213   0.82611   0.00000  Uiso   1.00
O1755  O     0.24644   0.85694   0.06903   0.00000  Uiso   1.00
O1756  O     0.00003   0.97299   0.07389   0.00000  Uiso   1.00
O1757  O     0.24864   0.86072   0.32419   0.00000  Uiso   1.00
O1758  O     0.24974   0.85664   0.57517   0.00000  Uiso   1.00
O1759  O     0.00231   0.97219   0.57429   0.00000  Uiso   1.00
O1760  O     0.00124   0.97568   0.82211   0.00000  Uiso   1.00
O1761  O     0.49517   0.02806   0.19689   0.00000  Uiso   1.00
O1762  O     0.25386   0.14650   0.43935   0.00000  Uiso   1.00
O1763  O     0.49967   0.02989   0.95021   0.00000  Uiso   1.00
O1764  O     0.48770   0.31212   0.31998   0.00000  Uiso   1.00
O1765  O     0.49801   0.35780   0.19300   0.00000  Uiso   1.00
O1766  O     0.48565   0.31311   0.06919   0.00000  Uiso   1.00
O1767  O     0.49756   0.35619   0.44079   0.00000  Uiso   1.00
O1768  O     0.49026   0.30795   0.82315   0.00000  Uiso   1.00
O1769  O     0.48581   0.31312   0.57065   0.00000  Uiso   1.00
O1770  O     0.49947   0.35978   0.94164   0.00000  Uiso   1.00
O1771  O     0.26038   0.47928   0.44767   0.00000  Uiso   1.00
O1772  O     0.25789   0.48204   0.19562   0.00000  Uiso   1.00
O1773  O     0.25896   0.47928   0.94792   0.00000  Uiso   1.00
O1774  O     0.26535   0.47866   0.69425   0.00000  Uiso   1.00
O1775  O     0.25235   0.52347   0.82070   0.00000  Uiso   1.00
O1776  O     0.25301   0.52388   0.57025   0.00000  Uiso   1.00
O1777  O     0.48158   0.65106   0.06504   0.00000  Uiso   1.00
O1778  O     0.48610   0.64798   0.32166   0.00000  Uiso   1.00
O1779  O     0.49992   0.69264   0.19216   0.00000  Uiso   1.00
O1780  O     0.48869   0.64605   0.81592   0.00000  Uiso   1.00
O1781  O     0.48531   0.64592   0.56906   0.00000  Uiso   1.00
O1782  O     0.49813   0.69158   0.69025   0.00000  Uiso   1.00
O1783  O     0.49423   0.69129   0.94098   0.00000  Uiso   1.00
O1784  O     0.26089   0.81600   0.19844   0.00000  Uiso   1.00
O1785  O     0.48684   0.98439   0.32076   0.00000  Uiso   1.00
O1786  O     0.26420   0.81313   0.44836   0.00000  Uiso   1.00
O1787  O     0.48425   0.98175   0.07500   0.00000  Uiso   1.00
O1788  O     0.49306   0.97752   0.57211   0.00000  Uiso   1.00
O1789  O     0.26570   0.81517   0.69624   0.00000  Uiso   1.00
O1790  O     0.26095   0.81693   0.94544   0.00000  Uiso   1.00
O1791  O     0.48701   0.98382   0.82359   0.00000  Uiso   1.00
O1792  O     0.25368   0.85769   0.82183   0.00000  Uiso   1.00
O1793  O     0.50298   0.02296   0.44868   0.00000  Uiso   1.00
O1794  O     0.50716   0.02354   0.69388   0.00000  Uiso   1.00
O1795  O     0.50074   0.35374   0.69750   0.00000  Uiso   1.00
O1796  O     0.74629   0.47843   0.44224   0.00000  Uiso   1.00
O1797  O     0.73984   0.51744   0.07038   0.00000  Uiso   1.00
O1798  O     0.73626   0.52288   0.31734   0.00000  Uiso   1.00
O1799  O     0.74305   0.47585   0.19554   0.00000  Uiso   1.00
O1800  O     0.73379   0.52044   0.57382   0.00000  Uiso   1.00
O1801  O     0.74225   0.51816   0.81853   0.00000  Uiso   1.00
O1802  O     0.74704   0.47351   0.69639   0.00000  Uiso   1.00
O1803  O     0.50033   0.69214   0.44416   0.00000  Uiso   1.00
O1804  O     0.73557   0.84883   0.32302   0.00000  Uiso   1.00
O1805  O     0.74423   0.80916   0.19453   0.00000  Uiso   1.00
O1806  O     0.74088   0.85329   0.06787   0.00000  Uiso   1.00
O1807  O     0.74776   0.80682   0.44529   0.00000  Uiso   1.00
O1808  O     0.73574   0.85008   0.57293   0.00000  Uiso   1.00
O1809  O     0.73399   0.85328   0.81847   0.00000  Uiso   1.00
O1810  O     0.74506   0.80529   0.69984   0.00000  Uiso   1.00
O1811  O     0.74638   0.81017   0.94315   0.00000  Uiso   1.00
O1812  O     0.76914   0.15330   0.19801   0.00000  Uiso   1.00
O1813  O     0.76359   0.14530   0.45247   0.00000  Uiso   1.00
O1814  O     0.75155   0.19270   0.32628   0.00000  Uiso   1.00
O1815  O     0.75020   0.19203   0.07340   0.00000  Uiso   1.00
O1816  O     0.75500   0.19037   0.57449   0.00000  Uiso   1.00
O1817  O     0.76708   0.14887   0.94938   0.00000  Uiso   1.00
O1818  O     0.76530   0.14746   0.70161   0.00000  Uiso   1.00
O1819  O     0.75056   0.19000   0.82509   0.00000  Uiso   1.00
O1820  O     0.99771   0.31042   0.82152   0.00000  Uiso   1.00
O1821  O     0.99611   0.31159   0.57237   0.00000  Uiso   1.00
O1822  O     0.75204   0.47170   0.94427   0.00000  Uiso   1.00
O1823  O     0.99994   0.64360   0.32692   0.00000  Uiso   1.00
O1824  O     0.99495   0.97337   0.32179   0.00000  Uiso   1.00
