data_final_Br-Ni-SABVOH01
_audit_creation_date              2022-12-15
_audit_creation_method            'Materials Studio'
_symmetry_space_group_name_H-M    'P1'
_symmetry_Int_Tables_number       1
_symmetry_cell_setting            triclinic
loop_
_symmetry_equiv_pos_as_xyz
  x,y,z
_cell_length_a                    33.3706
_cell_length_b                    36.0648
_cell_length_c                    25.8212
_cell_angle_alpha                 90.0000
_cell_angle_beta                  90.0000
_cell_angle_gamma                 90.0000
loop_
_atom_site_label
_atom_site_type_symbol
_atom_site_fract_x
_atom_site_fract_y
_atom_site_fract_z
_atom_site_U_iso_or_equiv
_atom_site_adp_type
_atom_site_occupancy
Ni1    Ni    0.24847   0.17060   0.37726   0.00000  Uiso   1.00
Ni2    Ni    0.24913   0.16737   0.25437   0.00000  Uiso   1.00
Ni3    Ni    0.24877   0.16940   0.13065   0.00000  Uiso   1.00
Ni4    Ni    0.24860   0.16903   0.00520   0.00000  Uiso   1.00
Ni5    Ni    0.00045   0.00210   0.38415   0.00000  Uiso   1.00
Ni6    Ni    0.00108   0.00167   0.75769   0.00000  Uiso   1.00
Ni7    Ni    0.00013   0.00091   0.50997   0.00000  Uiso   1.00
Ni8    Ni    0.24823   0.16705   0.75408   0.00000  Uiso   1.00
Ni9    Ni    0.24875   0.16835   0.87945   0.00000  Uiso   1.00
Ni10   Ni    0.24901   0.16880   0.50299   0.00000  Uiso   1.00
Ni11   Ni    0.24976   0.16761   0.62903   0.00000  Uiso   1.00
Ni12   Ni    0.24910   0.49713   0.25719   0.00000  Uiso   1.00
Ni13   Ni    0.24940   0.49995   0.38214   0.00000  Uiso   1.00
Ni14   Ni    0.24751   0.50413   0.63128   0.00000  Uiso   1.00
Ni15   Ni    0.24733   0.50267   0.50742   0.00000  Uiso   1.00
Ni16   Ni    0.00016   0.66498   0.37943   0.00000  Uiso   1.00
Ni17   Ni    0.00132   0.66455   0.63041   0.00000  Uiso   1.00
Ni18   Ni    0.24787   0.82877   0.25278   0.00000  Uiso   1.00
Ni19   Ni    0.24957   0.82889   0.00308   0.00000  Uiso   1.00
Ni20   Ni    0.24835   0.83081   0.37700   0.00000  Uiso   1.00
Ni21   Ni    0.24960   0.82896   0.12780   0.00000  Uiso   1.00
Ni22   Ni    0.24969   0.83302   0.75518   0.00000  Uiso   1.00
Ni23   Ni    0.24877   0.83438   0.62942   0.00000  Uiso   1.00
Ni24   Ni    0.00161   0.99854   0.88480   0.00000  Uiso   1.00
Ni25   Ni    0.24858   0.83302   0.50285   0.00000  Uiso   1.00
Ni26   Ni    0.24939   0.83185   0.87837   0.00000  Uiso   1.00
Ni27   Ni    0.49980   0.33441   0.63119   0.00000  Uiso   1.00
Ni28   Ni    0.49975   0.33544   0.50560   0.00000  Uiso   1.00
Ni29   Ni    0.25128   0.50132   0.00591   0.00000  Uiso   1.00
Ni30   Ni    0.25059   0.50006   0.13234   0.00000  Uiso   1.00
Ni31   Ni    0.25244   0.50308   0.88253   0.00000  Uiso   1.00
Ni32   Ni    0.25133   0.50298   0.75832   0.00000  Uiso   1.00
Ni33   Ni    0.49726   0.99458   0.38542   0.00000  Uiso   1.00
Ni34   Ni    0.49633   0.99793   0.01101   0.00000  Uiso   1.00
Ni35   Ni    0.49681   0.99522   0.26075   0.00000  Uiso   1.00
Ni36   Ni    0.49807   0.99736   0.13397   0.00000  Uiso   1.00
Ni37   Ni    0.49731   0.99698   0.63535   0.00000  Uiso   1.00
Ni38   Ni    0.49543   0.99571   0.50996   0.00000  Uiso   1.00
Ni39   Ni    0.49581   0.99975   0.88546   0.00000  Uiso   1.00
Ni40   Ni    0.49739   0.99835   0.76065   0.00000  Uiso   1.00
Ni41   Ni    0.74801   0.16537   0.13135   0.00000  Uiso   1.00
Ni42   Ni    0.74870   0.16598   0.00406   0.00000  Uiso   1.00
Ni43   Ni    0.74740   0.16634   0.25782   0.00000  Uiso   1.00
Ni44   Ni    0.74884   0.16687   0.38156   0.00000  Uiso   1.00
Ni45   Ni    0.74854   0.16397   0.63245   0.00000  Uiso   1.00
Ni46   Ni    0.74899   0.16415   0.50707   0.00000  Uiso   1.00
Ni47   Ni    0.50098   0.33504   0.25637   0.00000  Uiso   1.00
Ni48   Ni    0.50275   0.33449   0.38122   0.00000  Uiso   1.00
Ni49   Ni    0.50243   0.33332   0.13042   0.00000  Uiso   1.00
Ni50   Ni    0.50064   0.33358   0.00548   0.00000  Uiso   1.00
Ni51   Ni    0.50290   0.33293   0.87961   0.00000  Uiso   1.00
Ni52   Ni    0.50100   0.33494   0.75494   0.00000  Uiso   1.00
Ni53   Ni    0.74980   0.50224   0.00608   0.00000  Uiso   1.00
Ni54   Ni    0.50198   0.66782   0.00733   0.00000  Uiso   1.00
Ni55   Ni    0.50235   0.66485   0.25706   0.00000  Uiso   1.00
Ni56   Ni    0.50161   0.66410   0.38218   0.00000  Uiso   1.00
Ni57   Ni    0.50087   0.66491   0.13196   0.00000  Uiso   1.00
Ni58   Ni    0.50003   0.66586   0.50661   0.00000  Uiso   1.00
Ni59   Ni    0.50167   0.66850   0.75814   0.00000  Uiso   1.00
Ni60   Ni    0.50121   0.66842   0.63288   0.00000  Uiso   1.00
Ni61   Ni    0.50149   0.66633   0.88216   0.00000  Uiso   1.00
Ni62   Ni    0.74972   0.83103   0.26213   0.00000  Uiso   1.00
Ni63   Ni    0.74955   0.83761   0.88822   0.00000  Uiso   1.00
Ni64   Ni    0.74965   0.83571   0.76172   0.00000  Uiso   1.00
Ni65   Ni    0.99922   0.00038   0.26048   0.00000  Uiso   1.00
Ni66   Ni    0.99950   0.00146   0.63449   0.00000  Uiso   1.00
Ni67   Ni    0.75163   0.16732   0.88045   0.00000  Uiso   1.00
Ni68   Ni    0.75087   0.16469   0.75665   0.00000  Uiso   1.00
Ni69   Ni    0.99841   0.33491   0.13223   0.00000  Uiso   1.00
Ni70   Ni    0.99651   0.33485   0.25699   0.00000  Uiso   1.00
Ni71   Ni    0.99812   0.33660   0.00466   0.00000  Uiso   1.00
Ni72   Ni    0.99747   0.33362   0.38211   0.00000  Uiso   1.00
Ni73   Ni    0.99936   0.33525   0.87868   0.00000  Uiso   1.00
Ni74   Ni    0.99893   0.33563   0.50429   0.00000  Uiso   1.00
Ni75   Ni    1.00000   0.33500   0.75177   0.00000  Uiso   1.00
Ni76   Ni    0.99952   0.33400   0.62868   0.00000  Uiso   1.00
Ni77   Ni    0.75107   0.49981   0.38230   0.00000  Uiso   1.00
Ni78   Ni    0.75037   0.50030   0.25911   0.00000  Uiso   1.00
Ni79   Ni    0.75169   0.49909   0.13210   0.00000  Uiso   1.00
Ni80   Ni    0.75229   0.49905   0.50694   0.00000  Uiso   1.00
Ni81   Ni    0.75337   0.49890   0.63133   0.00000  Uiso   1.00
Ni82   Ni    0.75128   0.49910   0.75570   0.00000  Uiso   1.00
Ni83   Ni    0.75003   0.50299   0.87919   0.00000  Uiso   1.00
Ni84   Ni    0.99832   0.66421   0.12768   0.00000  Uiso   1.00
Ni85   Ni    0.99902   0.66422   0.25199   0.00000  Uiso   1.00
Ni86   Ni    0.99795   0.66405   0.00259   0.00000  Uiso   1.00
Ni87   Ni    0.99906   0.66410   0.88061   0.00000  Uiso   1.00
Ni88   Ni    0.99805   0.66372   0.75557   0.00000  Uiso   1.00
Ni89   Ni    0.99962   0.66709   0.50335   0.00000  Uiso   1.00
Ni90   Ni    0.75188   0.83387   0.13529   0.00000  Uiso   1.00
Ni91   Ni    0.75233   0.83321   0.38600   0.00000  Uiso   1.00
Ni92   Ni    0.99866   0.99788   0.00951   0.00000  Uiso   1.00
Ni93   Ni    0.75001   0.83660   0.01254   0.00000  Uiso   1.00
Ni94   Ni    0.99885   0.99773   0.13629   0.00000  Uiso   1.00
Ni95   Ni    0.75180   0.83332   0.51191   0.00000  Uiso   1.00
Ni96   Ni    0.75156   0.83415   0.63656   0.00000  Uiso   1.00
Br97   Br    0.11849   0.01817   0.46532   0.00000  Uiso   1.00
Br98   Br    0.11615   0.01940   0.22556   0.00000  Uiso   1.00
Br99   Br    0.12364   0.17771   0.34674   0.00000  Uiso   1.00
Br100  Br    0.12902   0.18871   0.09099   0.00000  Uiso   1.00
Br101  Br    0.12345   0.17871   0.59249   0.00000  Uiso   1.00
Br102  Br    0.12768   0.18785   0.84012   0.00000  Uiso   1.00
Br103  Br    0.11846   0.01931   0.96777   0.00000  Uiso   1.00
Br104  Br    0.11568   0.01568   0.72712   0.00000  Uiso   1.00
Br105  Br    0.11941   0.34302   0.22979   0.00000  Uiso   1.00
Br106  Br    0.12394   0.34714   0.47387   0.00000  Uiso   1.00
Br107  Br    0.12370   0.35559   0.71896   0.00000  Uiso   1.00
Br108  Br    0.11174   0.36032   0.96376   0.00000  Uiso   1.00
Br109  Br    0.13866   0.52699   0.08485   0.00000  Uiso   1.00
Br110  Br    0.13144   0.51820   0.34182   0.00000  Uiso   1.00
Br111  Br    0.12777   0.51492   0.59562   0.00000  Uiso   1.00
Br112  Br    0.13566   0.52050   0.84377   0.00000  Uiso   1.00
Br113  Br    0.12957   0.67607   0.21869   0.00000  Uiso   1.00
Br114  Br    0.12109   0.68564   0.46080   0.00000  Uiso   1.00
Br115  Br    0.11736   0.68421   0.71145   0.00000  Uiso   1.00
Br116  Br    0.11779   0.68996   0.95293   0.00000  Uiso   1.00
Br117  Br    0.13087   0.85095   0.09404   0.00000  Uiso   1.00
Br118  Br    0.13052   0.85209   0.34076   0.00000  Uiso   1.00
Br119  Br    0.12397   0.84924   0.59478   0.00000  Uiso   1.00
Br120  Br    0.13024   0.85251   0.84704   0.00000  Uiso   1.00
Br121  Br    0.36553   0.14322   0.21833   0.00000  Uiso   1.00
Br122  Br    0.36893   0.15160   0.47207   0.00000  Uiso   1.00
Br123  Br    0.36464   0.14875   0.71976   0.00000  Uiso   1.00
Br124  Br    0.37160   0.15492   0.97578   0.00000  Uiso   1.00
Br125  Br    0.37733   0.31476   0.08477   0.00000  Uiso   1.00
Br126  Br    0.37245   0.32746   0.34472   0.00000  Uiso   1.00
Br127  Br    0.37537   0.32037   0.59536   0.00000  Uiso   1.00
Br128  Br    0.38032   0.31851   0.83772   0.00000  Uiso   1.00
Br129  Br    0.37047   0.47481   0.21476   0.00000  Uiso   1.00
Br130  Br    0.36730   0.48217   0.46291   0.00000  Uiso   1.00
Br131  Br    0.37374   0.48357   0.71802   0.00000  Uiso   1.00
Br132  Br    0.37226   0.47874   0.96627   0.00000  Uiso   1.00
Br133  Br    0.38083   0.64993   0.09781   0.00000  Uiso   1.00
Br134  Br    0.38608   0.64312   0.34030   0.00000  Uiso   1.00
Br135  Br    0.38788   0.64855   0.59308   0.00000  Uiso   1.00
Br136  Br    0.37983   0.65548   0.85160   0.00000  Uiso   1.00
Br137  Br    0.37864   0.98202   0.34630   0.00000  Uiso   1.00
Br138  Br    0.37506   0.82316   0.22530   0.00000  Uiso   1.00
Br139  Br    0.38235   0.97934   0.09454   0.00000  Uiso   1.00
Br140  Br    0.36893   0.80920   0.45744   0.00000  Uiso   1.00
Br141  Br    0.37431   0.98832   0.85052   0.00000  Uiso   1.00
Br142  Br    0.37618   0.81494   0.71364   0.00000  Uiso   1.00
Br143  Br    0.37928   0.81562   0.96368   0.00000  Uiso   1.00
Br144  Br    0.38265   0.98231   0.59431   0.00000  Uiso   1.00
Br145  Br    0.62192   0.17720   0.34923   0.00000  Uiso   1.00
Br146  Br    0.61981   0.01643   0.21751   0.00000  Uiso   1.00
Br147  Br    0.62389   0.00746   0.47211   0.00000  Uiso   1.00
Br148  Br    0.62669   0.18336   0.08511   0.00000  Uiso   1.00
Br149  Br    0.62402   0.18275   0.59308   0.00000  Uiso   1.00
Br150  Br    0.62190   0.01447   0.72651   0.00000  Uiso   1.00
Br151  Br    0.63322   0.18472   0.83827   0.00000  Uiso   1.00
Br152  Br    0.61687   0.01779   0.96721   0.00000  Uiso   1.00
Br153  Br    0.62329   0.35079   0.21521   0.00000  Uiso   1.00
Br154  Br    0.61834   0.34767   0.47377   0.00000  Uiso   1.00
Br155  Br    0.62233   0.34453   0.72330   0.00000  Uiso   1.00
Br156  Br    0.63053   0.34863   0.96945   0.00000  Uiso   1.00
Br157  Br    0.63566   0.51761   0.09115   0.00000  Uiso   1.00
Br158  Br    0.62290   0.50849   0.35595   0.00000  Uiso   1.00
Br159  Br    0.63161   0.51379   0.59499   0.00000  Uiso   1.00
Br160  Br    0.63109   0.51734   0.84109   0.00000  Uiso   1.00
Br161  Br    0.63188   0.67418   0.23486   0.00000  Uiso   1.00
Br162  Br    0.62505   0.68060   0.46832   0.00000  Uiso   1.00
Br163  Br    0.62842   0.67833   0.72554   0.00000  Uiso   1.00
Br164  Br    0.62339   0.69142   0.96607   0.00000  Uiso   1.00
Br165  Br    0.63818   0.85179   0.09581   0.00000  Uiso   1.00
Br166  Br    0.63463   0.85065   0.34703   0.00000  Uiso   1.00
Br167  Br    0.63010   0.85098   0.59968   0.00000  Uiso   1.00
Br168  Br    0.63194   0.85120   0.85026   0.00000  Uiso   1.00
Br169  Br    0.86796   0.15359   0.47969   0.00000  Uiso   1.00
Br170  Br    0.86537   0.15093   0.22035   0.00000  Uiso   1.00
Br171  Br    0.87668   0.14676   0.71878   0.00000  Uiso   1.00
Br172  Br    0.86926   0.14714   0.97082   0.00000  Uiso   1.00
Br173  Br    0.87040   0.32395   0.09937   0.00000  Uiso   1.00
Br174  Br    0.87458   0.32127   0.34257   0.00000  Uiso   1.00
Br175  Br    0.87149   0.32330   0.59556   0.00000  Uiso   1.00
Br176  Br    0.87702   0.31522   0.84096   0.00000  Uiso   1.00
Br177  Br    0.87699   0.49183   0.22096   0.00000  Uiso   1.00
Br178  Br    0.87800   0.48825   0.47123   0.00000  Uiso   1.00
Br179  Br    0.87134   0.48616   0.71476   0.00000  Uiso   1.00
Br180  Br    0.86958   0.48373   0.96605   0.00000  Uiso   1.00
Br181  Br    0.88280   0.64364   0.08599   0.00000  Uiso   1.00
Br182  Br    0.87803   0.64976   0.34607   0.00000  Uiso   1.00
Br183  Br    0.88353   0.64435   0.58940   0.00000  Uiso   1.00
Br184  Br    0.88128   0.65097   0.84329   0.00000  Uiso   1.00
Br185  Br    0.88152   0.98048   0.09502   0.00000  Uiso   1.00
Br186  Br    0.87705   0.82272   0.47928   0.00000  Uiso   1.00
Br187  Br    0.87469   0.81632   0.21939   0.00000  Uiso   1.00
Br188  Br    0.88090   0.98054   0.34118   0.00000  Uiso   1.00
Br189  Br    0.87912   0.98623   0.84986   0.00000  Uiso   1.00
Br190  Br    0.87942   0.98111   0.59519   0.00000  Uiso   1.00
Br191  Br    0.86707   0.81602   0.96821   0.00000  Uiso   1.00
Br192  Br    0.87390   0.81939   0.72557   0.00000  Uiso   1.00
H193   H     0.08752   0.07388   0.14738   0.00000  Uiso   1.00
H194   H     0.15234   0.10720   0.14822   0.00000  Uiso   1.00
H195   H     0.17737   0.07210   0.24409   0.00000  Uiso   1.00
H196   H     0.09116   0.07698   0.39694   0.00000  Uiso   1.00
H197   H     0.15851   0.11029   0.39625   0.00000  Uiso   1.00
H198   H     0.18594   0.06587   0.49366   0.00000  Uiso   1.00
H199   H     0.24161   0.12171   0.44191   0.00000  Uiso   1.00
H200   H     0.17724   0.07311   0.98892   0.00000  Uiso   1.00
H201   H     0.02008   0.04666   0.69682   0.00000  Uiso   1.00
H202   H     0.09466   0.07352   0.64844   0.00000  Uiso   1.00
H203   H     0.16190   0.10451   0.64428   0.00000  Uiso   1.00
H204   H     0.18257   0.06328   0.75347   0.00000  Uiso   1.00
H205   H     0.08671   0.09097   0.89558   0.00000  Uiso   1.00
H206   H     0.15432   0.11444   0.90041   0.00000  Uiso   1.00
H207   H     0.00022   0.04744   0.94826   0.00000  Uiso   1.00
H208   H     0.23617   0.12413   0.94682   0.00000  Uiso   1.00
H209   H     0.06858   0.24020   0.11540   0.00000  Uiso   1.00
H210   H     0.16454   0.24678   0.01378   0.00000  Uiso   1.00
H211   H     0.05957   0.23107   0.37236   0.00000  Uiso   1.00
H212   H     0.15965   0.23949   0.26844   0.00000  Uiso   1.00
H213   H     0.09384   0.26815   0.27639   0.00000  Uiso   1.00
H214   H     0.10326   0.27960   0.02079   0.00000  Uiso   1.00
H215   H     0.02339   0.37711   0.19479   0.00000  Uiso   1.00
H216   H     0.00265   0.28719   0.06635   0.00000  Uiso   1.00
H217   H     0.02210   0.37935   0.44349   0.00000  Uiso   1.00
H218   H     0.06482   0.23384   0.61649   0.00000  Uiso   1.00
H219   H     0.09556   0.27659   0.51873   0.00000  Uiso   1.00
H220   H     0.06627   0.24009   0.86752   0.00000  Uiso   1.00
H221   H     0.16591   0.25023   0.75598   0.00000  Uiso   1.00
H222   H     0.10422   0.28027   0.75827   0.00000  Uiso   1.00
H223   H     0.16146   0.25067   0.50712   0.00000  Uiso   1.00
H224   H     0.23106   0.21425   0.56865   0.00000  Uiso   1.00
H225   H     0.01056   0.38464   0.93965   0.00000  Uiso   1.00
H226   H     0.22639   0.21249   0.81760   0.00000  Uiso   1.00
H227   H     0.02557   0.37341   0.68815   0.00000  Uiso   1.00
H228   H     0.18505   0.39808   0.50088   0.00000  Uiso   1.00
H229   H     0.07041   0.57207   0.11119   0.00000  Uiso   1.00
H230   H     0.15716   0.43214   0.15724   0.00000  Uiso   1.00
H231   H     0.16644   0.58314   0.01077   0.00000  Uiso   1.00
H232   H     0.06782   0.56263   0.36851   0.00000  Uiso   1.00
H233   H     0.14994   0.44429   0.39864   0.00000  Uiso   1.00
H234   H     0.15602   0.57149   0.27116   0.00000  Uiso   1.00
H235   H     0.09571   0.40076   0.15272   0.00000  Uiso   1.00
H236   H     0.09093   0.40446   0.40146   0.00000  Uiso   1.00
H237   H     0.22857   0.54568   0.31911   0.00000  Uiso   1.00
H238   H     0.17784   0.40070   0.24350   0.00000  Uiso   1.00
H239   H     0.08730   0.59881   0.27085   0.00000  Uiso   1.00
H240   H     0.06696   0.56625   0.62478   0.00000  Uiso   1.00
H241   H     0.14864   0.44307   0.65011   0.00000  Uiso   1.00
H242   H     0.07232   0.57146   0.86917   0.00000  Uiso   1.00
H243   H     0.14809   0.44693   0.89686   0.00000  Uiso   1.00
H244   H     0.15809   0.57365   0.76964   0.00000  Uiso   1.00
H245   H     0.15763   0.57664   0.52070   0.00000  Uiso   1.00
H246   H     0.08739   0.41344   0.89218   0.00000  Uiso   1.00
H247   H     0.18586   0.40326   0.74888   0.00000  Uiso   1.00
H248   H     0.08730   0.40786   0.64191   0.00000  Uiso   1.00
H249   H     0.24214   0.45520   0.94276   0.00000  Uiso   1.00
H250   H     0.17896   0.40805   0.99317   0.00000  Uiso   1.00
H251   H     0.24666   0.45464   0.69294   0.00000  Uiso   1.00
H252   H     0.18719   0.73306   0.49015   0.00000  Uiso   1.00
H253   H     0.10420   0.61515   0.01749   0.00000  Uiso   1.00
H254   H     0.08736   0.73179   0.13583   0.00000  Uiso   1.00
H255   H     0.15365   0.76365   0.14249   0.00000  Uiso   1.00
H256   H     0.18533   0.73219   0.24552   0.00000  Uiso   1.00
H257   H     0.08643   0.73983   0.39120   0.00000  Uiso   1.00
H258   H     0.14608   0.77672   0.39540   0.00000  Uiso   1.00
H259   H     0.02512   0.70571   0.18810   0.00000  Uiso   1.00
H260   H     0.01815   0.62394   0.31571   0.00000  Uiso   1.00
H261   H     0.01402   0.62023   0.06565   0.00000  Uiso   1.00
H262   H     0.23883   0.78140   0.19101   0.00000  Uiso   1.00
H263   H     0.08746   0.73988   0.63859   0.00000  Uiso   1.00
H264   H     0.15236   0.77248   0.64230   0.00000  Uiso   1.00
H265   H     0.17825   0.73764   0.73946   0.00000  Uiso   1.00
H266   H     0.08207   0.74529   0.88506   0.00000  Uiso   1.00
H267   H     0.14273   0.77838   0.89346   0.00000  Uiso   1.00
H268   H     0.02451   0.70625   0.69731   0.00000  Uiso   1.00
H269   H     0.09201   0.60366   0.52045   0.00000  Uiso   1.00
H270   H     0.09633   0.60698   0.77468   0.00000  Uiso   1.00
H271   H     0.17667   0.74045   0.98479   0.00000  Uiso   1.00
H272   H     0.02655   0.70387   0.94379   0.00000  Uiso   1.00
H273   H     0.01304   0.61957   0.82183   0.00000  Uiso   1.00
H274   H     0.23350   0.79012   0.69347   0.00000  Uiso   1.00
H275   H     0.06848   0.90495   0.12759   0.00000  Uiso   1.00
H276   H     0.10230   0.94295   0.02797   0.00000  Uiso   1.00
H277   H     0.07174   0.90882   0.36457   0.00000  Uiso   1.00
H278   H     0.16807   0.90594   0.26974   0.00000  Uiso   1.00
H279   H     0.10325   0.93798   0.27943   0.00000  Uiso   1.00
H280   H     0.16788   0.90884   0.02393   0.00000  Uiso   1.00
H281   H     0.00921   0.95423   0.31774   0.00000  Uiso   1.00
H282   H     0.24091   0.87684   0.06600   0.00000  Uiso   1.00
H283   H     0.06557   0.90923   0.61986   0.00000  Uiso   1.00
H284   H     0.10021   0.93449   0.52731   0.00000  Uiso   1.00
H285   H     0.07185   0.90443   0.87388   0.00000  Uiso   1.00
H286   H     0.16000   0.90577   0.77099   0.00000  Uiso   1.00
H287   H     0.09423   0.93937   0.77456   0.00000  Uiso   1.00
H288   H     0.15584   0.89546   0.52071   0.00000  Uiso   1.00
H289   H     0.22724   0.87611   0.81909   0.00000  Uiso   1.00
H290   H     0.01262   0.95288   0.82052   0.00000  Uiso   1.00
H291   H     0.43106   0.09265   0.25089   0.00000  Uiso   1.00
H292   H     0.33104   0.08766   0.13956   0.00000  Uiso   1.00
H293   H     0.39604   0.05389   0.14703   0.00000  Uiso   1.00
H294   H     0.33691   0.09630   0.39696   0.00000  Uiso   1.00
H295   H     0.39833   0.05925   0.40420   0.00000  Uiso   1.00
H296   H     0.27469   0.12927   0.18852   0.00000  Uiso   1.00
H297   H     0.43233   0.09365   0.49751   0.00000  Uiso   1.00
H298   H     0.43157   0.09706   0.75162   0.00000  Uiso   1.00
H299   H     0.33781   0.08933   0.64673   0.00000  Uiso   1.00
H300   H     0.39825   0.06284   0.65447   0.00000  Uiso   1.00
H301   H     0.33442   0.09565   0.89578   0.00000  Uiso   1.00
H302   H     0.40376   0.06954   0.90730   0.00000  Uiso   1.00
H303   H     0.27462   0.12464   0.69059   0.00000  Uiso   1.00
H304   H     0.43183   0.10025   0.99957   0.00000  Uiso   1.00
H305   H     0.41126   0.25796   0.01205   0.00000  Uiso   1.00
H306   H     0.34878   0.22663   0.01947   0.00000  Uiso   1.00
H307   H     0.31731   0.26652   0.11527   0.00000  Uiso   1.00
H308   H     0.40688   0.26669   0.27084   0.00000  Uiso   1.00
H309   H     0.34818   0.22951   0.27065   0.00000  Uiso   1.00
H310   H     0.40625   0.39683   0.15013   0.00000  Uiso   1.00
H311   H     0.31002   0.27711   0.37874   0.00000  Uiso   1.00
H312   H     0.26529   0.21171   0.31580   0.00000  Uiso   1.00
H313   H     0.25577   0.21699   0.06846   0.00000  Uiso   1.00
H314   H     0.46950   0.29862   0.31901   0.00000  Uiso   1.00
H315   H     0.41196   0.39506   0.39961   0.00000  Uiso   1.00
H316   H     0.35482   0.22780   0.51810   0.00000  Uiso   1.00
H317   H     0.31325   0.26899   0.62616   0.00000  Uiso   1.00
H318   H     0.41228   0.25665   0.76853   0.00000  Uiso   1.00
H319   H     0.34412   0.22861   0.77244   0.00000  Uiso   1.00
H320   H     0.40211   0.39333   0.89731   0.00000  Uiso   1.00
H321   H     0.31659   0.26809   0.86579   0.00000  Uiso   1.00
H322   H     0.41592   0.25923   0.50905   0.00000  Uiso   1.00
H323   H     0.49264   0.28678   0.56976   0.00000  Uiso   1.00
H324   H     0.48755   0.38078   0.69472   0.00000  Uiso   1.00
H325   H     0.44196   0.43695   0.25361   0.00000  Uiso   1.00
H326   H     0.35002   0.55797   0.02636   0.00000  Uiso   1.00
H327   H     0.33982   0.42471   0.14028   0.00000  Uiso   1.00
H328   H     0.42883   0.42984   0.48949   0.00000  Uiso   1.00
H329   H     0.34829   0.55429   0.27213   0.00000  Uiso   1.00
H330   H     0.34538   0.42560   0.39565   0.00000  Uiso   1.00
H331   H     0.41000   0.59040   0.27298   0.00000  Uiso   1.00
H332   H     0.25695   0.45156   0.44706   0.00000  Uiso   1.00
H333   H     0.41410   0.59025   0.02356   0.00000  Uiso   1.00
H334   H     0.25371   0.55116   0.07260   0.00000  Uiso   1.00
H335   H     0.32001   0.59896   0.12110   0.00000  Uiso   1.00
H336   H     0.44140   0.44056   0.00434   0.00000  Uiso   1.00
H337   H     0.27522   0.45901   0.19596   0.00000  Uiso   1.00
H338   H     0.31783   0.59957   0.36610   0.00000  Uiso   1.00
H339   H     0.26746   0.54513   0.81871   0.00000  Uiso   1.00
H340   H     0.43556   0.43414   0.74651   0.00000  Uiso   1.00
H341   H     0.34393   0.56280   0.52234   0.00000  Uiso   1.00
H342   H     0.34247   0.43287   0.64713   0.00000  Uiso   1.00
H343   H     0.34057   0.56604   0.77548   0.00000  Uiso   1.00
H344   H     0.33928   0.42596   0.89185   0.00000  Uiso   1.00
H345   H     0.40977   0.58947   0.52040   0.00000  Uiso   1.00
H346   H     0.25226   0.55139   0.57191   0.00000  Uiso   1.00
H347   H     0.32128   0.59699   0.87183   0.00000  Uiso   1.00
H348   H     0.32786   0.59216   0.61831   0.00000  Uiso   1.00
H349   H     0.40784   0.59647   0.77580   0.00000  Uiso   1.00
H350   H     0.40853   0.40773   0.65141   0.00000  Uiso   1.00
H351   H     0.43792   0.76924   0.25178   0.00000  Uiso   1.00
H352   H     0.34512   0.76821   0.14760   0.00000  Uiso   1.00
H353   H     0.40949   0.73583   0.14977   0.00000  Uiso   1.00
H354   H     0.27773   0.79309   0.44086   0.00000  Uiso   1.00
H355   H     0.33217   0.74336   0.38029   0.00000  Uiso   1.00
H356   H     0.39246   0.71480   0.39265   0.00000  Uiso   1.00
H357   H     0.43071   0.76168   0.49102   0.00000  Uiso   1.00
H358   H     0.27673   0.79226   0.93953   0.00000  Uiso   1.00
H359   H     0.43524   0.76104   0.74868   0.00000  Uiso   1.00
H360   H     0.33100   0.75310   0.63384   0.00000  Uiso   1.00
H361   H     0.39693   0.72393   0.64158   0.00000  Uiso   1.00
H362   H     0.33795   0.76310   0.89200   0.00000  Uiso   1.00
H363   H     0.39846   0.72781   0.89808   0.00000  Uiso   1.00
H364   H     0.49936   0.71487   0.94310   0.00000  Uiso   1.00
H365   H     0.47440   0.62858   0.81982   0.00000  Uiso   1.00
H366   H     0.43700   0.76111   0.99349   0.00000  Uiso   1.00
H367   H     0.34214   0.88637   0.02129   0.00000  Uiso   1.00
H368   H     0.25642   0.87704   0.31686   0.00000  Uiso   1.00
H369   H     0.32397   0.92380   0.11496   0.00000  Uiso   1.00
H370   H     0.39903   0.92673   0.27962   0.00000  Uiso   1.00
H371   H     0.33663   0.89573   0.27439   0.00000  Uiso   1.00
H372   H     0.32467   0.92376   0.36092   0.00000  Uiso   1.00
H373   H     0.40188   0.92450   0.02892   0.00000  Uiso   1.00
H374   H     0.48378   0.94872   0.07501   0.00000  Uiso   1.00
H375   H     0.48859   0.94676   0.32769   0.00000  Uiso   1.00
H376   H     0.33493   0.89224   0.51376   0.00000  Uiso   1.00
H377   H     0.31857   0.93252   0.61284   0.00000  Uiso   1.00
H378   H     0.40687   0.91971   0.77231   0.00000  Uiso   1.00
H379   H     0.34896   0.88614   0.76873   0.00000  Uiso   1.00
H380   H     0.32054   0.92872   0.86567   0.00000  Uiso   1.00
H381   H     0.40008   0.92261   0.51912   0.00000  Uiso   1.00
H382   H     0.46897   0.96039   0.82328   0.00000  Uiso   1.00
H383   H     0.26218   0.87828   0.56636   0.00000  Uiso   1.00
H384   H     0.58453   0.07507   0.14275   0.00000  Uiso   1.00
H385   H     0.64807   0.10862   0.14432   0.00000  Uiso   1.00
H386   H     0.67740   0.07249   0.24837   0.00000  Uiso   1.00
H387   H     0.58781   0.07421   0.39761   0.00000  Uiso   1.00
H388   H     0.65482   0.10280   0.40730   0.00000  Uiso   1.00
H389   H     0.51245   0.04189   0.20053   0.00000  Uiso   1.00
H390   H     0.67931   0.06499   0.49654   0.00000  Uiso   1.00
H391   H     0.74571   0.11689   0.19733   0.00000  Uiso   1.00
H392   H     0.50051   0.04523   0.44758   0.00000  Uiso   1.00
H393   H     0.67747   0.06859   0.99094   0.00000  Uiso   1.00
H394   H     0.58457   0.07202   0.64090   0.00000  Uiso   1.00
H395   H     0.64929   0.10382   0.64501   0.00000  Uiso   1.00
H396   H     0.68255   0.06476   0.75267   0.00000  Uiso   1.00
H397   H     0.58288   0.07887   0.89476   0.00000  Uiso   1.00
H398   H     0.65126   0.10910   0.90064   0.00000  Uiso   1.00
H399   H     0.52688   0.03526   0.69735   0.00000  Uiso   1.00
H400   H     0.50578   0.04721   0.94675   0.00000  Uiso   1.00
H401   H     0.66868   0.24901   0.01141   0.00000  Uiso   1.00
H402   H     0.60377   0.27829   0.01767   0.00000  Uiso   1.00
H403   H     0.56481   0.23763   0.11657   0.00000  Uiso   1.00
H404   H     0.53042   0.37309   0.19130   0.00000  Uiso   1.00
H405   H     0.55891   0.22800   0.37798   0.00000  Uiso   1.00
H406   H     0.65808   0.23797   0.26901   0.00000  Uiso   1.00
H407   H     0.59650   0.27193   0.27357   0.00000  Uiso   1.00
H408   H     0.50151   0.28453   0.06888   0.00000  Uiso   1.00
H409   H     0.74186   0.21529   0.32082   0.00000  Uiso   1.00
H410   H     0.50599   0.38394   0.44846   0.00000  Uiso   1.00
H411   H     0.66461   0.24707   0.51227   0.00000  Uiso   1.00
H412   H     0.52300   0.37737   0.94285   0.00000  Uiso   1.00
H413   H     0.56914   0.23490   0.61989   0.00000  Uiso   1.00
H414   H     0.56460   0.22635   0.87673   0.00000  Uiso   1.00
H415   H     0.66063   0.24136   0.76309   0.00000  Uiso   1.00
H416   H     0.59620   0.27647   0.77097   0.00000  Uiso   1.00
H417   H     0.60368   0.27427   0.52116   0.00000  Uiso   1.00
H418   H     0.51085   0.28620   0.81650   0.00000  Uiso   1.00
H419   H     0.68982   0.39843   0.75242   0.00000  Uiso   1.00
H420   H     0.68652   0.39976   0.50283   0.00000  Uiso   1.00
H421   H     0.56929   0.56810   0.11410   0.00000  Uiso   1.00
H422   H     0.65164   0.44309   0.14855   0.00000  Uiso   1.00
H423   H     0.59300   0.40285   0.14520   0.00000  Uiso   1.00
H424   H     0.56874   0.56989   0.37863   0.00000  Uiso   1.00
H425   H     0.65484   0.44015   0.39650   0.00000  Uiso   1.00
H426   H     0.65368   0.56491   0.26895   0.00000  Uiso   1.00
H427   H     0.65974   0.57687   0.01637   0.00000  Uiso   1.00
H428   H     0.59380   0.40200   0.39567   0.00000  Uiso   1.00
H429   H     0.59247   0.59660   0.27490   0.00000  Uiso   1.00
H430   H     0.68014   0.40821   0.24116   0.00000  Uiso   1.00
H431   H     0.56900   0.57346   0.61833   0.00000  Uiso   1.00
H432   H     0.64957   0.43995   0.65483   0.00000  Uiso   1.00
H433   H     0.72342   0.53394   0.56704   0.00000  Uiso   1.00
H434   H     0.56856   0.57100   0.86299   0.00000  Uiso   1.00
H435   H     0.65992   0.43435   0.90293   0.00000  Uiso   1.00
H436   H     0.66221   0.57425   0.76501   0.00000  Uiso   1.00
H437   H     0.74462   0.45529   0.94195   0.00000  Uiso   1.00
H438   H     0.72557   0.54370   0.81378   0.00000  Uiso   1.00
H439   H     0.59023   0.41109   0.89251   0.00000  Uiso   1.00
H440   H     0.66645   0.57612   0.52211   0.00000  Uiso   1.00
H441   H     0.59128   0.40809   0.64772   0.00000  Uiso   1.00
H442   H     0.68770   0.40567   0.99973   0.00000  Uiso   1.00
H443   H     0.74635   0.45054   0.69370   0.00000  Uiso   1.00
H444   H     0.59335   0.59670   0.77686   0.00000  Uiso   1.00
H445   H     0.52438   0.70901   0.19833   0.00000  Uiso   1.00
H446   H     0.59149   0.74064   0.14860   0.00000  Uiso   1.00
H447   H     0.65737   0.77182   0.15390   0.00000  Uiso   1.00
H448   H     0.69326   0.72379   0.26530   0.00000  Uiso   1.00
H449   H     0.58625   0.74641   0.38973   0.00000  Uiso   1.00
H450   H     0.64664   0.77663   0.40064   0.00000  Uiso   1.00
H451   H     0.51835   0.70974   0.44173   0.00000  Uiso   1.00
H452   H     0.51461   0.61719   0.32394   0.00000  Uiso   1.00
H453   H     0.59574   0.60776   0.01764   0.00000  Uiso   1.00
H454   H     0.50368   0.61862   0.06968   0.00000  Uiso   1.00
H455   H     0.68570   0.73541   0.49956   0.00000  Uiso   1.00
H456   H     0.68748   0.73584   0.00195   0.00000  Uiso   1.00
H457   H     0.58448   0.74555   0.64102   0.00000  Uiso   1.00
H458   H     0.65304   0.77116   0.64984   0.00000  Uiso   1.00
H459   H     0.52806   0.71075   0.69393   0.00000  Uiso   1.00
H460   H     0.68115   0.74087   0.74883   0.00000  Uiso   1.00
H461   H     0.58463   0.74592   0.89290   0.00000  Uiso   1.00
H462   H     0.64653   0.78214   0.89917   0.00000  Uiso   1.00
H463   H     0.59904   0.60822   0.52285   0.00000  Uiso   1.00
H464   H     0.51732   0.62244   0.57036   0.00000  Uiso   1.00
H465   H     0.57066   0.90146   0.12019   0.00000  Uiso   1.00
H466   H     0.58239   0.93411   0.02955   0.00000  Uiso   1.00
H467   H     0.57248   0.90339   0.36986   0.00000  Uiso   1.00
H468   H     0.66175   0.91094   0.26960   0.00000  Uiso   1.00
H469   H     0.60334   0.94609   0.27176   0.00000  Uiso   1.00
H470   H     0.65051   0.90703   0.03140   0.00000  Uiso   1.00
H471   H     0.72565   0.87332   0.32211   0.00000  Uiso   1.00
H472   H     0.56445   0.89823   0.62679   0.00000  Uiso   1.00
H473   H     0.59710   0.94083   0.52466   0.00000  Uiso   1.00
H474   H     0.57317   0.91236   0.86802   0.00000  Uiso   1.00
H475   H     0.65908   0.91392   0.77378   0.00000  Uiso   1.00
H476   H     0.59384   0.94153   0.77717   0.00000  Uiso   1.00
H477   H     0.72212   0.87805   0.82482   0.00000  Uiso   1.00
H478   H     0.65762   0.90639   0.52926   0.00000  Uiso   1.00
H479   H     0.72988   0.87830   0.57141   0.00000  Uiso   1.00
H480   H     0.50049   0.94634   0.57412   0.00000  Uiso   1.00
H481   H     0.93076   0.09943   0.24915   0.00000  Uiso   1.00
H482   H     0.83486   0.08890   0.14534   0.00000  Uiso   1.00
H483   H     0.89916   0.05461   0.15000   0.00000  Uiso   1.00
H484   H     0.83804   0.08610   0.39535   0.00000  Uiso   1.00
H485   H     0.90452   0.05686   0.39585   0.00000  Uiso   1.00
H486   H     0.77290   0.12387   0.44213   0.00000  Uiso   1.00
H487   H     0.98625   0.04680   0.44951   0.00000  Uiso   1.00
H488   H     0.98480   0.04529   0.19546   0.00000  Uiso   1.00
H489   H     0.93456   0.10045   0.50038   0.00000  Uiso   1.00
H490   H     0.93227   0.09352   0.74783   0.00000  Uiso   1.00
H491   H     0.84155   0.08709   0.64944   0.00000  Uiso   1.00
H492   H     0.90478   0.05644   0.64939   0.00000  Uiso   1.00
H493   H     0.83873   0.08988   0.90028   0.00000  Uiso   1.00
H494   H     0.90530   0.06363   0.90374   0.00000  Uiso   1.00
H495   H     0.75967   0.11832   0.94318   0.00000  Uiso   1.00
H496   H     0.77154   0.11974   0.69461   0.00000  Uiso   1.00
H497   H     0.92995   0.09347   0.99601   0.00000  Uiso   1.00
H498   H     0.85065   0.22253   0.02368   0.00000  Uiso   1.00
H499   H     0.91460   0.25870   0.01769   0.00000  Uiso   1.00
H500   H     0.81247   0.26597   0.11941   0.00000  Uiso   1.00
H501   H     0.90857   0.25664   0.26594   0.00000  Uiso   1.00
H502   H     0.84422   0.22866   0.27261   0.00000  Uiso   1.00
H503   H     0.81194   0.26488   0.37170   0.00000  Uiso   1.00
H504   H     0.99928   0.28434   0.31782   0.00000  Uiso   1.00
H505   H     0.90341   0.39731   0.14622   0.00000  Uiso   1.00
H506   H     0.75084   0.21248   0.06677   0.00000  Uiso   1.00
H507   H     0.90919   0.39789   0.39536   0.00000  Uiso   1.00
H508   H     0.81698   0.26305   0.61571   0.00000  Uiso   1.00
H509   H     0.91230   0.25735   0.76230   0.00000  Uiso   1.00
H510   H     0.84785   0.22960   0.76787   0.00000  Uiso   1.00
H511   H     0.98695   0.28654   0.81798   0.00000  Uiso   1.00
H512   H     0.81279   0.26800   0.87412   0.00000  Uiso   1.00
H513   H     0.84991   0.22711   0.52328   0.00000  Uiso   1.00
H514   H     0.91142   0.25724   0.51574   0.00000  Uiso   1.00
H515   H     0.97636   0.29514   0.56588   0.00000  Uiso   1.00
H516   H     0.91027   0.39329   0.64516   0.00000  Uiso   1.00
H517   H     0.89908   0.39077   0.89185   0.00000  Uiso   1.00
H518   H     0.76191   0.21069   0.81554   0.00000  Uiso   1.00
H519   H     0.75005   0.21125   0.56665   0.00000  Uiso   1.00
H520   H     0.93804   0.43289   0.49796   0.00000  Uiso   1.00
H521   H     0.94074   0.44296   0.24644   0.00000  Uiso   1.00
H522   H     0.84543   0.55435   0.01386   0.00000  Uiso   1.00
H523   H     0.84365   0.56530   0.27696   0.00000  Uiso   1.00
H524   H     0.84469   0.43037   0.39431   0.00000  Uiso   1.00
H525   H     0.83954   0.42376   0.14081   0.00000  Uiso   1.00
H526   H     0.75160   0.54935   0.32191   0.00000  Uiso   1.00
H527   H     0.78367   0.46233   0.19871   0.00000  Uiso   1.00
H528   H     0.77846   0.46076   0.44176   0.00000  Uiso   1.00
H529   H     0.91273   0.58165   0.00651   0.00000  Uiso   1.00
H530   H     0.81850   0.59386   0.11802   0.00000  Uiso   1.00
H531   H     0.90582   0.59732   0.27063   0.00000  Uiso   1.00
H532   H     0.76821   0.54311   0.07137   0.00000  Uiso   1.00
H533   H     0.93512   0.43762   0.74248   0.00000  Uiso   1.00
H534   H     0.85171   0.55360   0.52186   0.00000  Uiso   1.00
H535   H     0.84610   0.42392   0.64508   0.00000  Uiso   1.00
H536   H     0.84105   0.56272   0.77458   0.00000  Uiso   1.00
H537   H     0.83628   0.42594   0.88874   0.00000  Uiso   1.00
H538   H     0.93165   0.42611   0.98972   0.00000  Uiso   1.00
H539   H     0.91734   0.58420   0.51616   0.00000  Uiso   1.00
H540   H     0.90693   0.59521   0.77258   0.00000  Uiso   1.00
H541   H     0.82063   0.59380   0.61556   0.00000  Uiso   1.00
H542   H     0.81280   0.59899   0.86849   0.00000  Uiso   1.00
H543   H     0.78146   0.79454   0.44934   0.00000  Uiso   1.00
H544   H     0.93053   0.76012   0.24371   0.00000  Uiso   1.00
H545   H     0.83653   0.75390   0.14196   0.00000  Uiso   1.00
H546   H     0.89775   0.72133   0.14378   0.00000  Uiso   1.00
H547   H     0.83950   0.75361   0.39257   0.00000  Uiso   1.00
H548   H     0.90495   0.72790   0.40094   0.00000  Uiso   1.00
H549   H     0.99527   0.71449   0.44135   0.00000  Uiso   1.00
H550   H     0.77047   0.78627   0.19964   0.00000  Uiso   1.00
H551   H     0.81776   0.60116   0.37470   0.00000  Uiso   1.00
H552   H     0.93167   0.76293   0.74372   0.00000  Uiso   1.00
H553   H     0.84056   0.75310   0.65117   0.00000  Uiso   1.00
H554   H     0.90132   0.72161   0.65514   0.00000  Uiso   1.00
H555   H     0.77963   0.79865   0.70051   0.00000  Uiso   1.00
H556   H     0.84084   0.75723   0.89836   0.00000  Uiso   1.00
H557   H     0.90083   0.72517   0.89811   0.00000  Uiso   1.00
H558   H     0.97821   0.62471   0.56582   0.00000  Uiso   1.00
H559   H     0.75412   0.78751   0.95266   0.00000  Uiso   1.00
H560   H     0.93001   0.76048   0.99437   0.00000  Uiso   1.00
H561   H     0.93764   0.77179   0.50910   0.00000  Uiso   1.00
H562   H     0.84616   0.89160   0.02431   0.00000  Uiso   1.00
H563   H     0.81775   0.93860   0.12582   0.00000  Uiso   1.00
H564   H     0.90975   0.92116   0.27462   0.00000  Uiso   1.00
H565   H     0.84921   0.88861   0.27403   0.00000  Uiso   1.00
H566   H     0.81932   0.93252   0.37208   0.00000  Uiso   1.00
H567   H     0.91136   0.91901   0.01983   0.00000  Uiso   1.00
H568   H     0.76764   0.87810   0.07459   0.00000  Uiso   1.00
H569   H     0.98808   0.94892   0.07053   0.00000  Uiso   1.00
H570   H     0.90913   0.92422   0.52236   0.00000  Uiso   1.00
H571   H     0.84907   0.89289   0.52302   0.00000  Uiso   1.00
H572   H     0.82388   0.92516   0.62155   0.00000  Uiso   1.00
H573   H     0.91210   0.92918   0.77600   0.00000  Uiso   1.00
H574   H     0.84608   0.90080   0.78290   0.00000  Uiso   1.00
H575   H     0.81360   0.93599   0.87825   0.00000  Uiso   1.00
H576   H     0.97636   0.95589   0.57553   0.00000  Uiso   1.00
C577   C     0.10791   0.07327   0.11385   0.00000  Uiso   1.00
C578   C     0.14382   0.09177   0.11481   0.00000  Uiso   1.00
C579   C     0.12474   0.05019   0.02696   0.00000  Uiso   1.00
C580   C     0.15851   0.07260   0.02545   0.00000  Uiso   1.00
C581   C     0.05933   0.03058   0.07208   0.00000  Uiso   1.00
C582   C     0.09770   0.05206   0.07002   0.00000  Uiso   1.00
C583   C     0.20272   0.11877   0.06696   0.00000  Uiso   1.00
C584   C     0.16857   0.09453   0.06984   0.00000  Uiso   1.00
C585   C     0.11249   0.07306   0.36576   0.00000  Uiso   1.00
C586   C     0.14994   0.09286   0.36409   0.00000  Uiso   1.00
C587   C     0.12401   0.05311   0.27859   0.00000  Uiso   1.00
C588   C     0.15846   0.07365   0.27785   0.00000  Uiso   1.00
C589   C     0.05846   0.03682   0.32377   0.00000  Uiso   1.00
C590   C     0.09750   0.05541   0.32095   0.00000  Uiso   1.00
C591   C     0.20438   0.11892   0.31609   0.00000  Uiso   1.00
C592   C     0.17242   0.09244   0.32037   0.00000  Uiso   1.00
C593   C     0.11295   0.07154   0.61401   0.00000  Uiso   1.00
C594   C     0.14998   0.08820   0.61209   0.00000  Uiso   1.00
C595   C     0.12906   0.04662   0.52499   0.00000  Uiso   1.00
C596   C     0.16538   0.06437   0.52700   0.00000  Uiso   1.00
C597   C     0.06159   0.03159   0.57098   0.00000  Uiso   1.00
C598   C     0.10150   0.05055   0.56917   0.00000  Uiso   1.00
C599   C     0.20889   0.11602   0.56312   0.00000  Uiso   1.00
C600   C     0.17377   0.08885   0.56694   0.00000  Uiso   1.00
C601   C     0.10850   0.08175   0.86410   0.00000  Uiso   1.00
C602   C     0.14636   0.09646   0.86695   0.00000  Uiso   1.00
C603   C     0.12440   0.04949   0.78409   0.00000  Uiso   1.00
C604   C     0.16251   0.06551   0.78561   0.00000  Uiso   1.00
C605   C     0.05780   0.03937   0.82657   0.00000  Uiso   1.00
C606   C     0.09682   0.05916   0.82395   0.00000  Uiso   1.00
C607   C     0.20606   0.11568   0.81669   0.00000  Uiso   1.00
C608   C     0.17278   0.08948   0.82469   0.00000  Uiso   1.00
C609   C     0.18857   0.19839   0.68754   0.00000  Uiso   1.00
C610   C     0.12490   0.38006   0.28153   0.00000  Uiso   1.00
C611   C     0.12167   0.38880   0.02493   0.00000  Uiso   1.00
C612   C     0.06026   0.36123   0.32387   0.00000  Uiso   1.00
C613   C     0.14000   0.24327   0.47897   0.00000  Uiso   1.00
C614   C     0.10180   0.25919   0.48492   0.00000  Uiso   1.00
C615   C     0.09943   0.38125   0.32352   0.00000  Uiso   1.00
C616   C     0.12253   0.21908   0.15035   0.00000  Uiso   1.00
C617   C     0.08667   0.23955   0.15119   0.00000  Uiso   1.00
C618   C     0.14936   0.21862   0.19223   0.00000  Uiso   1.00
C619   C     0.04129   0.28401   0.19743   0.00000  Uiso   1.00
C620   C     0.07633   0.25826   0.19659   0.00000  Uiso   1.00
C621   C     0.13786   0.23854   0.23611   0.00000  Uiso   1.00
C622   C     0.09992   0.25386   0.24223   0.00000  Uiso   1.00
C623   C     0.05798   0.36792   0.07028   0.00000  Uiso   1.00
C624   C     0.09705   0.38737   0.07135   0.00000  Uiso   1.00
C625   C     0.11631   0.21011   0.40192   0.00000  Uiso   1.00
C626   C     0.08192   0.23211   0.40564   0.00000  Uiso   1.00
C627   C     0.14739   0.21703   0.44081   0.00000  Uiso   1.00
C628   C     0.03869   0.28272   0.44489   0.00000  Uiso   1.00
C629   C     0.07421   0.25713   0.44488   0.00000  Uiso   1.00
C630   C     0.18876   0.20090   0.43889   0.00000  Uiso   1.00
C631   C     0.18948   0.20122   0.19122   0.00000  Uiso   1.00
C632   C     0.12842   0.38603   0.77806   0.00000  Uiso   1.00
C633   C     0.13130   0.37723   0.53195   0.00000  Uiso   1.00
C634   C     0.10736   0.26395   0.98612   0.00000  Uiso   1.00
C635   C     0.12023   0.21513   0.64468   0.00000  Uiso   1.00
C636   C     0.09842   0.38913   0.81763   0.00000  Uiso   1.00
C637   C     0.08595   0.23775   0.64526   0.00000  Uiso   1.00
C638   C     0.15046   0.21888   0.68632   0.00000  Uiso   1.00
C639   C     0.04329   0.28536   0.69162   0.00000  Uiso   1.00
C640   C     0.08107   0.26376   0.68620   0.00000  Uiso   1.00
C641   C     0.14364   0.24273   0.72678   0.00000  Uiso   1.00
C642   C     0.10845   0.26308   0.72574   0.00000  Uiso   1.00
C643   C     0.06300   0.36361   0.56835   0.00000  Uiso   1.00
C644   C     0.10154   0.38202   0.57055   0.00000  Uiso   1.00
C645   C     0.12306   0.22099   0.89924   0.00000  Uiso   1.00
C646   C     0.08768   0.24179   0.90208   0.00000  Uiso   1.00
C647   C     0.05892   0.36968   0.81703   0.00000  Uiso   1.00
C648   C     0.15096   0.22047   0.94176   0.00000  Uiso   1.00
C649   C     0.04458   0.28811   0.94277   0.00000  Uiso   1.00
C650   C     0.07977   0.26410   0.94315   0.00000  Uiso   1.00
C651   C     0.14353   0.24479   0.98309   0.00000  Uiso   1.00
C652   C     0.16510   0.39904   0.53207   0.00000  Uiso   1.00
C653   C     0.18846   0.20010   0.94105   0.00000  Uiso   1.00
C654   C     0.11039   0.40374   0.36653   0.00000  Uiso   1.00
C655   C     0.09865   0.58669   0.23511   0.00000  Uiso   1.00
C656   C     0.12582   0.55196   0.14632   0.00000  Uiso   1.00
C657   C     0.08957   0.57041   0.14560   0.00000  Uiso   1.00
C658   C     0.14761   0.42125   0.11705   0.00000  Uiso   1.00
C659   C     0.18909   0.53020   0.19384   0.00000  Uiso   1.00
C660   C     0.15053   0.55272   0.19179   0.00000  Uiso   1.00
C661   C     0.13852   0.57468   0.48593   0.00000  Uiso   1.00
C662   C     0.13572   0.56865   0.23722   0.00000  Uiso   1.00
C663   C     0.17016   0.42406   0.32223   0.00000  Uiso   1.00
C664   C     0.20482   0.45208   0.07240   0.00000  Uiso   1.00
C665   C     0.17083   0.42480   0.07214   0.00000  Uiso   1.00
C666   C     0.12256   0.54735   0.40229   0.00000  Uiso   1.00
C667   C     0.07596   0.58943   0.19029   0.00000  Uiso   1.00
C668   C     0.08764   0.56734   0.40042   0.00000  Uiso   1.00
C669   C     0.14580   0.42365   0.36778   0.00000  Uiso   1.00
C670   C     0.18619   0.52845   0.44602   0.00000  Uiso   1.00
C671   C     0.14744   0.54928   0.44499   0.00000  Uiso   1.00
C672   C     0.11071   0.40400   0.11706   0.00000  Uiso   1.00
C673   C     0.07566   0.58900   0.44321   0.00000  Uiso   1.00
C674   C     0.20396   0.45045   0.32206   0.00000  Uiso   1.00
C675   C     0.10180   0.59123   0.48531   0.00000  Uiso   1.00
C676   C     0.15934   0.40182   0.27953   0.00000  Uiso   1.00
C677   C     0.15931   0.40638   0.02802   0.00000  Uiso   1.00
C678   C     0.10989   0.59984   0.98132   0.00000  Uiso   1.00
C679   C     0.17142   0.43054   0.82099   0.00000  Uiso   1.00
C680   C     0.11895   0.54382   0.65713   0.00000  Uiso   1.00
C681   C     0.08441   0.56485   0.65631   0.00000  Uiso   1.00
C682   C     0.14517   0.42435   0.61605   0.00000  Uiso   1.00
C683   C     0.18600   0.52753   0.69842   0.00000  Uiso   1.00
C684   C     0.14672   0.54603   0.69734   0.00000  Uiso   1.00
C685   C     0.13659   0.56811   0.73821   0.00000  Uiso   1.00
C686   C     0.07713   0.58872   0.69827   0.00000  Uiso   1.00
C687   C     0.20458   0.45205   0.57326   0.00000  Uiso   1.00
C688   C     0.17307   0.42305   0.57384   0.00000  Uiso   1.00
C689   C     0.12845   0.55533   0.89763   0.00000  Uiso   1.00
C690   C     0.09313   0.57598   0.89860   0.00000  Uiso   1.00
C691   C     0.14394   0.42982   0.86336   0.00000  Uiso   1.00
C692   C     0.19328   0.53596   0.94162   0.00000  Uiso   1.00
C693   C     0.15630   0.55846   0.93813   0.00000  Uiso   1.00
C694   C     0.08295   0.59634   0.94196   0.00000  Uiso   1.00
C695   C     0.20756   0.45437   0.82386   0.00000  Uiso   1.00
C696   C     0.14629   0.58268   0.97945   0.00000  Uiso   1.00
C697   C     0.16388   0.40604   0.78039   0.00000  Uiso   1.00
C698   C     0.10213   0.58865   0.74130   0.00000  Uiso   1.00
C699   C     0.10889   0.40754   0.86280   0.00000  Uiso   1.00
C700   C     0.10924   0.40569   0.61186   0.00000  Uiso   1.00
C701   C     0.04197   0.61464   0.18737   0.00000  Uiso   1.00
C702   C     0.10965   0.73428   0.10283   0.00000  Uiso   1.00
C703   C     0.14561   0.75305   0.10694   0.00000  Uiso   1.00
C704   C     0.12230   0.71931   0.01520   0.00000  Uiso   1.00
C705   C     0.15745   0.74070   0.01760   0.00000  Uiso   1.00
C706   C     0.05815   0.69578   0.05900   0.00000  Uiso   1.00
C707   C     0.09626   0.71810   0.05826   0.00000  Uiso   1.00
C708   C     0.20636   0.77977   0.06570   0.00000  Uiso   1.00
C709   C     0.17032   0.75564   0.06324   0.00000  Uiso   1.00
C710   C     0.04123   0.61555   0.44173   0.00000  Uiso   1.00
C711   C     0.10855   0.73712   0.35921   0.00000  Uiso   1.00
C712   C     0.14309   0.75884   0.36103   0.00000  Uiso   1.00
C713   C     0.12932   0.70942   0.27712   0.00000  Uiso   1.00
C714   C     0.16487   0.73102   0.28064   0.00000  Uiso   1.00
C715   C     0.06184   0.69481   0.31338   0.00000  Uiso   1.00
C716   C     0.09991   0.71471   0.31475   0.00000  Uiso   1.00
C717   C     0.20321   0.78312   0.31908   0.00000  Uiso   1.00
C718   C     0.16981   0.75579   0.32152   0.00000  Uiso   1.00
C719   C     0.04473   0.61570   0.69298   0.00000  Uiso   1.00
C720   C     0.11033   0.73924   0.60673   0.00000  Uiso   1.00
C721   C     0.14839   0.75521   0.60861   0.00000  Uiso   1.00
C722   C     0.13037   0.71490   0.52134   0.00000  Uiso   1.00
C723   C     0.16811   0.73232   0.52498   0.00000  Uiso   1.00
C724   C     0.06136   0.69784   0.56250   0.00000  Uiso   1.00
C725   C     0.10157   0.71747   0.56344   0.00000  Uiso   1.00
C726   C     0.20730   0.78426   0.57132   0.00000  Uiso   1.00
C727   C     0.17656   0.75468   0.56913   0.00000  Uiso   1.00
C728   C     0.04626   0.61863   0.93807   0.00000  Uiso   1.00
C729   C     0.10199   0.74545   0.85115   0.00000  Uiso   1.00
C730   C     0.14032   0.76156   0.85626   0.00000  Uiso   1.00
C731   C     0.12306   0.71532   0.77382   0.00000  Uiso   1.00
C732   C     0.15990   0.73645   0.77404   0.00000  Uiso   1.00
C733   C     0.05698   0.69762   0.81464   0.00000  Uiso   1.00
C734   C     0.09554   0.71885   0.81285   0.00000  Uiso   1.00
C735   C     0.20344   0.78557   0.81863   0.00000  Uiso   1.00
C736   C     0.16739   0.76079   0.81631   0.00000  Uiso   1.00
C737   C     0.13717   0.89869   0.48733   0.00000  Uiso   1.00
C738   C     0.12363   0.88355   0.15678   0.00000  Uiso   1.00
C739   C     0.08934   0.90563   0.16015   0.00000  Uiso   1.00
C740   C     0.18934   0.86110   0.19232   0.00000  Uiso   1.00
C741   C     0.15262   0.88423   0.19619   0.00000  Uiso   1.00
C742   C     0.04838   0.95360   0.20213   0.00000  Uiso   1.00
C743   C     0.08173   0.92704   0.20197   0.00000  Uiso   1.00
C744   C     0.14597   0.90645   0.23907   0.00000  Uiso   1.00
C745   C     0.10898   0.92575   0.24321   0.00000  Uiso   1.00
C746   C     0.12422   0.88531   0.39879   0.00000  Uiso   1.00
C747   C     0.09176   0.90946   0.39866   0.00000  Uiso   1.00
C748   C     0.18765   0.86027   0.44020   0.00000  Uiso   1.00
C749   C     0.14975   0.88058   0.44222   0.00000  Uiso   1.00
C750   C     0.04759   0.95461   0.44747   0.00000  Uiso   1.00
C751   C     0.08058   0.92752   0.44563   0.00000  Uiso   1.00
C752   C     0.10383   0.92001   0.49078   0.00000  Uiso   1.00
C753   C     0.12295   0.88602   0.64827   0.00000  Uiso   1.00
C754   C     0.08820   0.90840   0.64999   0.00000  Uiso   1.00
C755   C     0.18904   0.86467   0.69328   0.00000  Uiso   1.00
C756   C     0.15064   0.88623   0.69257   0.00000  Uiso   1.00
C757   C     0.04414   0.95265   0.69838   0.00000  Uiso   1.00
C758   C     0.07950   0.92990   0.69571   0.00000  Uiso   1.00
C759   C     0.14115   0.90796   0.73632   0.00000  Uiso   1.00
C760   C     0.10422   0.92742   0.73925   0.00000  Uiso   1.00
C761   C     0.12595   0.88302   0.90961   0.00000  Uiso   1.00
C762   C     0.09156   0.90442   0.90964   0.00000  Uiso   1.00
C763   C     0.19233   0.86399   0.94668   0.00000  Uiso   1.00
C764   C     0.15472   0.88497   0.94917   0.00000  Uiso   1.00
C765   C     0.04807   0.95027   0.94908   0.00000  Uiso   1.00
C766   C     0.08229   0.92450   0.95142   0.00000  Uiso   1.00
C767   C     0.14507   0.90581   0.99278   0.00000  Uiso   1.00
C768   C     0.10974   0.92662   0.99429   0.00000  Uiso   1.00
C769   C     0.37617   0.11977   0.02877   0.00000  Uiso   1.00
C770   C     0.41149   0.09782   0.03271   0.00000  Uiso   1.00
C771   C     0.31065   0.13876   0.06819   0.00000  Uiso   1.00
C772   C     0.34506   0.11392   0.06622   0.00000  Uiso   1.00
C773   C     0.45320   0.04690   0.07524   0.00000  Uiso   1.00
C774   C     0.41801   0.07316   0.07379   0.00000  Uiso   1.00
C775   C     0.35343   0.09273   0.11027   0.00000  Uiso   1.00
C776   C     0.39023   0.07202   0.11343   0.00000  Uiso   1.00
C777   C     0.37315   0.11325   0.27672   0.00000  Uiso   1.00
C778   C     0.40782   0.09167   0.27987   0.00000  Uiso   1.00
C779   C     0.30834   0.13566   0.31962   0.00000  Uiso   1.00
C780   C     0.34681   0.11395   0.32030   0.00000  Uiso   1.00
C781   C     0.45312   0.04490   0.32403   0.00000  Uiso   1.00
C782   C     0.41825   0.07021   0.32339   0.00000  Uiso   1.00
C783   C     0.35595   0.09460   0.36462   0.00000  Uiso   1.00
C784   C     0.39111   0.07235   0.36582   0.00000  Uiso   1.00
C785   C     0.37730   0.11651   0.52862   0.00000  Uiso   1.00
C786   C     0.41159   0.09411   0.52892   0.00000  Uiso   1.00
C787   C     0.31024   0.13643   0.56717   0.00000  Uiso   1.00
C788   C     0.34754   0.11290   0.56910   0.00000  Uiso   1.00
C789   C     0.45172   0.04651   0.57530   0.00000  Uiso   1.00
C790   C     0.41822   0.07197   0.57472   0.00000  Uiso   1.00
C791   C     0.35759   0.09382   0.61496   0.00000  Uiso   1.00
C792   C     0.39279   0.07453   0.61653   0.00000  Uiso   1.00
C793   C     0.37694   0.12111   0.78117   0.00000  Uiso   1.00
C794   C     0.41187   0.09930   0.78328   0.00000  Uiso   1.00
C795   C     0.30983   0.13859   0.82057   0.00000  Uiso   1.00
C796   C     0.34809   0.11919   0.82147   0.00000  Uiso   1.00
C797   C     0.45348   0.05044   0.82423   0.00000  Uiso   1.00
C798   C     0.42255   0.08052   0.82663   0.00000  Uiso   1.00
C799   C     0.35947   0.10185   0.86828   0.00000  Uiso   1.00
C800   C     0.39810   0.08423   0.87179   0.00000  Uiso   1.00
C801   C     0.38995   0.26509   0.23493   0.00000  Uiso   1.00
C802   C     0.35507   0.24499   0.23593   0.00000  Uiso   1.00
C803   C     0.37179   0.28588   0.14841   0.00000  Uiso   1.00
C804   C     0.33623   0.26527   0.15193   0.00000  Uiso   1.00
C805   C     0.43870   0.30505   0.19064   0.00000  Uiso   1.00
C806   C     0.39954   0.28625   0.19148   0.00000  Uiso   1.00
C807   C     0.29314   0.21881   0.19779   0.00000  Uiso   1.00
C808   C     0.32821   0.24428   0.19506   0.00000  Uiso   1.00
C809   C     0.45856   0.38514   0.06840   0.00000  Uiso   1.00
C810   C     0.39033   0.26721   0.48405   0.00000  Uiso   1.00
C811   C     0.35672   0.24688   0.48598   0.00000  Uiso   1.00
C812   C     0.36813   0.29588   0.40399   0.00000  Uiso   1.00
C813   C     0.33326   0.27497   0.40715   0.00000  Uiso   1.00
C814   C     0.43898   0.30874   0.44134   0.00000  Uiso   1.00
C815   C     0.39773   0.29095   0.44233   0.00000  Uiso   1.00
C816   C     0.29267   0.22120   0.44614   0.00000  Uiso   1.00
C817   C     0.32573   0.25081   0.44877   0.00000  Uiso   1.00
C818   C     0.46011   0.38674   0.31891   0.00000  Uiso   1.00
C819   C     0.39027   0.26329   0.98218   0.00000  Uiso   1.00
C820   C     0.39239   0.25932   0.73419   0.00000  Uiso   1.00
C821   C     0.35525   0.24094   0.73712   0.00000  Uiso   1.00
C822   C     0.37352   0.28403   0.65083   0.00000  Uiso   1.00
C823   C     0.33682   0.26439   0.65343   0.00000  Uiso   1.00
C824   C     0.44144   0.30083   0.69156   0.00000  Uiso   1.00
C825   C     0.40200   0.27986   0.68992   0.00000  Uiso   1.00
C826   C     0.29369   0.21709   0.69577   0.00000  Uiso   1.00
C827   C     0.32960   0.24035   0.69419   0.00000  Uiso   1.00
C828   C     0.45485   0.38470   0.56682   0.00000  Uiso   1.00
C829   C     0.35398   0.24495   0.98555   0.00000  Uiso   1.00
C830   C     0.37207   0.28668   0.89763   0.00000  Uiso   1.00
C831   C     0.33845   0.26566   0.89828   0.00000  Uiso   1.00
C832   C     0.44097   0.30300   0.93924   0.00000  Uiso   1.00
C833   C     0.40166   0.28253   0.93894   0.00000  Uiso   1.00
C834   C     0.29427   0.21633   0.94345   0.00000  Uiso   1.00
C835   C     0.32811   0.24351   0.94157   0.00000  Uiso   1.00
C836   C     0.45499   0.38194   0.81759   0.00000  Uiso   1.00
C837   C     0.29468   0.55100   0.44279   0.00000  Uiso   1.00
C838   C     0.35248   0.57781   0.48838   0.00000  Uiso   1.00
C839   C     0.33969   0.59849   0.15491   0.00000  Uiso   1.00
C840   C     0.32831   0.57697   0.44377   0.00000  Uiso   1.00
C841   C     0.33727   0.59993   0.40127   0.00000  Uiso   1.00
C842   C     0.38997   0.59371   0.48804   0.00000  Uiso   1.00
C843   C     0.42816   0.41375   0.32472   0.00000  Uiso   1.00
C844   C     0.37960   0.45325   0.02830   0.00000  Uiso   1.00
C845   C     0.41791   0.43753   0.03451   0.00000  Uiso   1.00
C846   C     0.35430   0.57383   0.24083   0.00000  Uiso   1.00
C847   C     0.31083   0.46751   0.06711   0.00000  Uiso   1.00
C848   C     0.35086   0.44886   0.06838   0.00000  Uiso   1.00
C849   C     0.36068   0.42639   0.10978   0.00000  Uiso   1.00
C850   C     0.36593   0.42813   0.36475   0.00000  Uiso   1.00
C851   C     0.42605   0.41223   0.07354   0.00000  Uiso   1.00
C852   C     0.29539   0.54901   0.19421   0.00000  Uiso   1.00
C853   C     0.32933   0.57518   0.19718   0.00000  Uiso   1.00
C854   C     0.38084   0.45038   0.27857   0.00000  Uiso   1.00
C855   C     0.41818   0.43514   0.28318   0.00000  Uiso   1.00
C856   C     0.39791   0.40978   0.11494   0.00000  Uiso   1.00
C857   C     0.31161   0.46375   0.31884   0.00000  Uiso   1.00
C858   C     0.35386   0.44700   0.32075   0.00000  Uiso   1.00
C859   C     0.40449   0.41265   0.36945   0.00000  Uiso   1.00
C860   C     0.38982   0.59374   0.24134   0.00000  Uiso   1.00
C861   C     0.35680   0.57651   0.99364   0.00000  Uiso   1.00
C862   C     0.39757   0.41583   0.61377   0.00000  Uiso   1.00
C863   C     0.42203   0.40941   0.82153   0.00000  Uiso   1.00
C864   C     0.30009   0.54947   0.94367   0.00000  Uiso   1.00
C865   C     0.37596   0.45193   0.52552   0.00000  Uiso   1.00
C866   C     0.41002   0.43184   0.52503   0.00000  Uiso   1.00
C867   C     0.34861   0.58435   0.74221   0.00000  Uiso   1.00
C868   C     0.30811   0.47108   0.56669   0.00000  Uiso   1.00
C869   C     0.34933   0.45242   0.56804   0.00000  Uiso   1.00
C870   C     0.36238   0.43508   0.61335   0.00000  Uiso   1.00
C871   C     0.33313   0.57667   0.94834   0.00000  Uiso   1.00
C872   C     0.39417   0.59466   0.99191   0.00000  Uiso   1.00
C873   C     0.29407   0.55119   0.69549   0.00000  Uiso   1.00
C874   C     0.32610   0.57828   0.69724   0.00000  Uiso   1.00
C875   C     0.37991   0.45498   0.77833   0.00000  Uiso   1.00
C876   C     0.35913   0.42894   0.86014   0.00000  Uiso   1.00
C877   C     0.41472   0.43317   0.78007   0.00000  Uiso   1.00
C878   C     0.31230   0.47125   0.81888   0.00000  Uiso   1.00
C879   C     0.35009   0.45146   0.81760   0.00000  Uiso   1.00
C880   C     0.42058   0.41076   0.56983   0.00000  Uiso   1.00
C881   C     0.39515   0.40909   0.86211   0.00000  Uiso   1.00
C882   C     0.34222   0.59893   0.90607   0.00000  Uiso   1.00
C883   C     0.33926   0.59895   0.65465   0.00000  Uiso   1.00
C884   C     0.37308   0.61943   0.40396   0.00000  Uiso   1.00
C885   C     0.38059   0.78432   0.02495   0.00000  Uiso   1.00
C886   C     0.37344   0.61885   0.15449   0.00000  Uiso   1.00
C887   C     0.43945   0.63417   0.19766   0.00000  Uiso   1.00
C888   C     0.40072   0.61551   0.19746   0.00000  Uiso   1.00
C889   C     0.41629   0.76262   0.02626   0.00000  Uiso   1.00
C890   C     0.35328   0.78500   0.06586   0.00000  Uiso   1.00
C891   C     0.45917   0.71583   0.07305   0.00000  Uiso   1.00
C892   C     0.42581   0.74391   0.07198   0.00000  Uiso   1.00
C893   C     0.36508   0.76808   0.11201   0.00000  Uiso   1.00
C894   C     0.40214   0.74923   0.11554   0.00000  Uiso   1.00
C895   C     0.44219   0.63067   0.44848   0.00000  Uiso   1.00
C896   C     0.40144   0.61273   0.44576   0.00000  Uiso   1.00
C897   C     0.37813   0.78274   0.27549   0.00000  Uiso   1.00
C898   C     0.41438   0.76301   0.27930   0.00000  Uiso   1.00
C899   C     0.34700   0.77674   0.31306   0.00000  Uiso   1.00
C900   C     0.45782   0.71374   0.32213   0.00000  Uiso   1.00
C901   C     0.42132   0.73711   0.32048   0.00000  Uiso   1.00
C902   C     0.35424   0.74968   0.35151   0.00000  Uiso   1.00
C903   C     0.39045   0.73126   0.35789   0.00000  Uiso   1.00
C904   C     0.30860   0.79638   0.31265   0.00000  Uiso   1.00
C905   C     0.37225   0.62235   0.65634   0.00000  Uiso   1.00
C906   C     0.43989   0.63555   0.69716   0.00000  Uiso   1.00
C907   C     0.39907   0.61986   0.69750   0.00000  Uiso   1.00
C908   C     0.37467   0.78175   0.52150   0.00000  Uiso   1.00
C909   C     0.41045   0.76104   0.52418   0.00000  Uiso   1.00
C910   C     0.34727   0.78276   0.56431   0.00000  Uiso   1.00
C911   C     0.45306   0.71193   0.56878   0.00000  Uiso   1.00
C912   C     0.41926   0.73980   0.56779   0.00000  Uiso   1.00
C913   C     0.35528   0.75865   0.60436   0.00000  Uiso   1.00
C914   C     0.39295   0.74042   0.60976   0.00000  Uiso   1.00
C915   C     0.44244   0.63585   0.95006   0.00000  Uiso   1.00
C916   C     0.40470   0.61772   0.94858   0.00000  Uiso   1.00
C917   C     0.37800   0.78336   0.77503   0.00000  Uiso   1.00
C918   C     0.41342   0.76267   0.77822   0.00000  Uiso   1.00
C919   C     0.37628   0.62129   0.90714   0.00000  Uiso   1.00
C920   C     0.34734   0.78017   0.81187   0.00000  Uiso   1.00
C921   C     0.45643   0.71653   0.82394   0.00000  Uiso   1.00
C922   C     0.42068   0.74187   0.82150   0.00000  Uiso   1.00
C923   C     0.35764   0.76102   0.85825   0.00000  Uiso   1.00
C924   C     0.39374   0.74433   0.86302   0.00000  Uiso   1.00
C925   C     0.38647   0.60005   0.74318   0.00000  Uiso   1.00
C926   C     0.38198   0.92750   0.48701   0.00000  Uiso   1.00
C927   C     0.38193   0.92723   0.24224   0.00000  Uiso   1.00
C928   C     0.34556   0.91020   0.24075   0.00000  Uiso   1.00
C929   C     0.37298   0.94655   0.15295   0.00000  Uiso   1.00
C930   C     0.33792   0.92651   0.15173   0.00000  Uiso   1.00
C931   C     0.43714   0.96149   0.19815   0.00000  Uiso   1.00
C932   C     0.39781   0.94355   0.19757   0.00000  Uiso   1.00
C933   C     0.29353   0.87697   0.18903   0.00000  Uiso   1.00
C934   C     0.32594   0.90561   0.19446   0.00000  Uiso   1.00
C935   C     0.34518   0.90963   0.48580   0.00000  Uiso   1.00
C936   C     0.36986   0.94967   0.40038   0.00000  Uiso   1.00
C937   C     0.33681   0.92760   0.39635   0.00000  Uiso   1.00
C938   C     0.43617   0.96266   0.44790   0.00000  Uiso   1.00
C939   C     0.39494   0.94978   0.44488   0.00000  Uiso   1.00
C940   C     0.29139   0.88004   0.43499   0.00000  Uiso   1.00
C941   C     0.32389   0.90689   0.43914   0.00000  Uiso   1.00
C942   C     0.31376   0.80260   0.06401   0.00000  Uiso   1.00
C943   C     0.38586   0.92583   0.99360   0.00000  Uiso   1.00
C944   C     0.38903   0.92345   0.73774   0.00000  Uiso   1.00
C945   C     0.35401   0.90559   0.73686   0.00000  Uiso   1.00
C946   C     0.37397   0.94909   0.65071   0.00000  Uiso   1.00
C947   C     0.33692   0.93058   0.64961   0.00000  Uiso   1.00
C948   C     0.43830   0.96698   0.69985   0.00000  Uiso   1.00
C949   C     0.40092   0.94598   0.69659   0.00000  Uiso   1.00
C950   C     0.29570   0.88257   0.69227   0.00000  Uiso   1.00
C951   C     0.32794   0.90813   0.69393   0.00000  Uiso   1.00
C952   C     0.35016   0.90458   0.99050   0.00000  Uiso   1.00
C953   C     0.36765   0.95323   0.90824   0.00000  Uiso   1.00
C954   C     0.33660   0.92944   0.90360   0.00000  Uiso   1.00
C955   C     0.43350   0.96807   0.95156   0.00000  Uiso   1.00
C956   C     0.39426   0.94948   0.94978   0.00000  Uiso   1.00
C957   C     0.29356   0.87870   0.93865   0.00000  Uiso   1.00
C958   C     0.32549   0.90556   0.94429   0.00000  Uiso   1.00
C959   C     0.30919   0.80286   0.56285   0.00000  Uiso   1.00
C960   C     0.30781   0.80058   0.81128   0.00000  Uiso   1.00
C961   C     0.60700   0.07103   0.11121   0.00000  Uiso   1.00
C962   C     0.64290   0.09049   0.11107   0.00000  Uiso   1.00
C963   C     0.62492   0.04477   0.02926   0.00000  Uiso   1.00
C964   C     0.65953   0.06652   0.02692   0.00000  Uiso   1.00
C965   C     0.55846   0.03011   0.06946   0.00000  Uiso   1.00
C966   C     0.59911   0.04729   0.06987   0.00000  Uiso   1.00
C967   C     0.70386   0.11552   0.06397   0.00000  Uiso   1.00
C968   C     0.66841   0.08992   0.06982   0.00000  Uiso   1.00
C969   C     0.60920   0.07121   0.36626   0.00000  Uiso   1.00
C970   C     0.64695   0.08890   0.36957   0.00000  Uiso   1.00
C971   C     0.62650   0.04801   0.28043   0.00000  Uiso   1.00
C972   C     0.66037   0.07023   0.28183   0.00000  Uiso   1.00
C973   C     0.55776   0.02989   0.32124   0.00000  Uiso   1.00
C974   C     0.59813   0.04854   0.32347   0.00000  Uiso   1.00
C975   C     0.70618   0.11606   0.32157   0.00000  Uiso   1.00
C976   C     0.67168   0.09097   0.32546   0.00000  Uiso   1.00
C977   C     0.68673   0.19735   0.19078   0.00000  Uiso   1.00
C978   C     0.68812   0.19648   0.44099   0.00000  Uiso   1.00
C979   C     0.68927   0.19659   0.69386   0.00000  Uiso   1.00
C980   C     0.60585   0.06907   0.60983   0.00000  Uiso   1.00
C981   C     0.64138   0.08941   0.61204   0.00000  Uiso   1.00
C982   C     0.62472   0.04343   0.52835   0.00000  Uiso   1.00
C983   C     0.65823   0.06649   0.52805   0.00000  Uiso   1.00
C984   C     0.55722   0.02800   0.56705   0.00000  Uiso   1.00
C985   C     0.59681   0.04621   0.56764   0.00000  Uiso   1.00
C986   C     0.70252   0.11382   0.56909   0.00000  Uiso   1.00
C987   C     0.66927   0.08763   0.57123   0.00000  Uiso   1.00
C988   C     0.60562   0.07383   0.86581   0.00000  Uiso   1.00
C989   C     0.64212   0.09372   0.86675   0.00000  Uiso   1.00
C990   C     0.62736   0.04742   0.78414   0.00000  Uiso   1.00
C991   C     0.66196   0.06851   0.78518   0.00000  Uiso   1.00
C992   C     0.55822   0.03143   0.82078   0.00000  Uiso   1.00
C993   C     0.59704   0.05077   0.82370   0.00000  Uiso   1.00
C994   C     0.70407   0.11817   0.82094   0.00000  Uiso   1.00
C995   C     0.67051   0.09230   0.82527   0.00000  Uiso   1.00
C996   C     0.63050   0.38251   0.27414   0.00000  Uiso   1.00
C997   C     0.60775   0.26088   0.48390   0.00000  Uiso   1.00
C998   C     0.63235   0.38257   0.02771   0.00000  Uiso   1.00
C999   C     0.60465   0.38009   0.31926   0.00000  Uiso   1.00
C1000  C     0.61981   0.21358   0.14850   0.00000  Uiso   1.00
C1001  C     0.58550   0.23696   0.15141   0.00000  Uiso   1.00
C1002  C     0.56539   0.36212   0.31826   0.00000  Uiso   1.00
C1003  C     0.64810   0.21690   0.19146   0.00000  Uiso   1.00
C1004  C     0.54399   0.28535   0.19663   0.00000  Uiso   1.00
C1005  C     0.57610   0.25673   0.19578   0.00000  Uiso   1.00
C1006  C     0.63662   0.23597   0.23762   0.00000  Uiso   1.00
C1007  C     0.60066   0.25478   0.23854   0.00000  Uiso   1.00
C1008  C     0.56787   0.35829   0.06792   0.00000  Uiso   1.00
C1009  C     0.60438   0.38134   0.06999   0.00000  Uiso   1.00
C1010  C     0.61976   0.21261   0.40441   0.00000  Uiso   1.00
C1011  C     0.58472   0.23393   0.40507   0.00000  Uiso   1.00
C1012  C     0.64958   0.21736   0.44166   0.00000  Uiso   1.00
C1013  C     0.54275   0.28360   0.44889   0.00000  Uiso   1.00
C1014  C     0.57797   0.25724   0.44769   0.00000  Uiso   1.00
C1015  C     0.64330   0.24229   0.47970   0.00000  Uiso   1.00
C1016  C     0.63053   0.38029   0.77925   0.00000  Uiso   1.00
C1017  C     0.60611   0.25757   0.98794   0.00000  Uiso   1.00
C1018  C     0.56100   0.36678   0.81944   0.00000  Uiso   1.00
C1019  C     0.62818   0.38206   0.52998   0.00000  Uiso   1.00
C1020  C     0.62021   0.20990   0.65465   0.00000  Uiso   1.00
C1021  C     0.58680   0.23465   0.65412   0.00000  Uiso   1.00
C1022  C     0.64973   0.21536   0.69377   0.00000  Uiso   1.00
C1023  C     0.54558   0.28572   0.69216   0.00000  Uiso   1.00
C1024  C     0.57823   0.25888   0.69381   0.00000  Uiso   1.00
C1025  C     0.63842   0.23774   0.73528   0.00000  Uiso   1.00
C1026  C     0.60145   0.25668   0.73772   0.00000  Uiso   1.00
C1027  C     0.56032   0.36557   0.57101   0.00000  Uiso   1.00
C1028  C     0.60031   0.38482   0.57151   0.00000  Uiso   1.00
C1029  C     0.62419   0.21570   0.90057   0.00000  Uiso   1.00
C1030  C     0.58657   0.23250   0.90507   0.00000  Uiso   1.00
C1031  C     0.60152   0.38436   0.81932   0.00000  Uiso   1.00
C1032  C     0.65415   0.22153   0.93753   0.00000  Uiso   1.00
C1033  C     0.54548   0.28167   0.94679   0.00000  Uiso   1.00
C1034  C     0.57815   0.25557   0.94706   0.00000  Uiso   1.00
C1035  C     0.64450   0.24180   0.98300   0.00000  Uiso   1.00
C1036  C     0.69199   0.20181   0.93721   0.00000  Uiso   1.00
C1037  C     0.61419   0.40385   0.11286   0.00000  Uiso   1.00
C1038  C     0.70737   0.45190   0.32160   0.00000  Uiso   1.00
C1039  C     0.60785   0.59250   0.49263   0.00000  Uiso   1.00
C1040  C     0.62462   0.54789   0.14869   0.00000  Uiso   1.00
C1041  C     0.58715   0.56781   0.14973   0.00000  Uiso   1.00
C1042  C     0.64764   0.42571   0.11437   0.00000  Uiso   1.00
C1043  C     0.68964   0.52670   0.19543   0.00000  Uiso   1.00
C1044  C     0.64991   0.54558   0.19249   0.00000  Uiso   1.00
C1045  C     0.64294   0.57226   0.49130   0.00000  Uiso   1.00
C1046  C     0.63433   0.56259   0.23782   0.00000  Uiso   1.00
C1047  C     0.57735   0.58869   0.19413   0.00000  Uiso   1.00
C1048  C     0.66494   0.40631   0.02916   0.00000  Uiso   1.00
C1049  C     0.70803   0.45209   0.07098   0.00000  Uiso   1.00
C1050  C     0.67393   0.42719   0.07201   0.00000  Uiso   1.00
C1051  C     0.62536   0.54777   0.40655   0.00000  Uiso   1.00
C1052  C     0.59106   0.56887   0.40863   0.00000  Uiso   1.00
C1053  C     0.64831   0.42330   0.36228   0.00000  Uiso   1.00
C1054  C     0.69246   0.53170   0.44641   0.00000  Uiso   1.00
C1055  C     0.65301   0.55110   0.44717   0.00000  Uiso   1.00
C1056  C     0.67350   0.42548   0.31900   0.00000  Uiso   1.00
C1057  C     0.59958   0.58479   0.23920   0.00000  Uiso   1.00
C1058  C     0.58218   0.59266   0.45000   0.00000  Uiso   1.00
C1059  C     0.66214   0.40626   0.27409   0.00000  Uiso   1.00
C1060  C     0.61376   0.40036   0.36304   0.00000  Uiso   1.00
C1061  C     0.63933   0.57412   0.98419   0.00000  Uiso   1.00
C1062  C     0.62634   0.55129   0.64741   0.00000  Uiso   1.00
C1063  C     0.59005   0.57148   0.64950   0.00000  Uiso   1.00
C1064  C     0.64598   0.42483   0.61718   0.00000  Uiso   1.00
C1065  C     0.69064   0.52991   0.69316   0.00000  Uiso   1.00
C1066  C     0.65337   0.55200   0.69139   0.00000  Uiso   1.00
C1067  C     0.61111   0.40599   0.86216   0.00000  Uiso   1.00
C1068  C     0.64203   0.57348   0.73318   0.00000  Uiso   1.00
C1069  C     0.70794   0.44892   0.57402   0.00000  Uiso   1.00
C1070  C     0.67290   0.42419   0.57642   0.00000  Uiso   1.00
C1071  C     0.62274   0.54940   0.89656   0.00000  Uiso   1.00
C1072  C     0.58827   0.57096   0.89649   0.00000  Uiso   1.00
C1073  C     0.64898   0.42242   0.86650   0.00000  Uiso   1.00
C1074  C     0.68801   0.53446   0.94282   0.00000  Uiso   1.00
C1075  C     0.64985   0.55293   0.94065   0.00000  Uiso   1.00
C1076  C     0.66530   0.40260   0.78122   0.00000  Uiso   1.00
C1077  C     0.57921   0.59198   0.94080   0.00000  Uiso   1.00
C1078  C     0.70689   0.45162   0.82213   0.00000  Uiso   1.00
C1079  C     0.67341   0.42449   0.82516   0.00000  Uiso   1.00
C1080  C     0.60251   0.58751   0.73898   0.00000  Uiso   1.00
C1081  C     0.57824   0.59070   0.69545   0.00000  Uiso   1.00
C1082  C     0.60237   0.59202   0.98436   0.00000  Uiso   1.00
C1083  C     0.61185   0.40381   0.61641   0.00000  Uiso   1.00
C1084  C     0.66423   0.40173   0.53343   0.00000  Uiso   1.00
C1085  C     0.54517   0.61529   0.19134   0.00000  Uiso   1.00
C1086  C     0.61043   0.73936   0.11484   0.00000  Uiso   1.00
C1087  C     0.64884   0.75510   0.11931   0.00000  Uiso   1.00
C1088  C     0.62819   0.71918   0.02785   0.00000  Uiso   1.00
C1089  C     0.66434   0.73784   0.03383   0.00000  Uiso   1.00
C1090  C     0.56269   0.69731   0.06950   0.00000  Uiso   1.00
C1091  C     0.60041   0.71917   0.06931   0.00000  Uiso   1.00
C1092  C     0.70881   0.78431   0.07730   0.00000  Uiso   1.00
C1093  C     0.67300   0.75836   0.07643   0.00000  Uiso   1.00
C1094  C     0.54763   0.61848   0.44561   0.00000  Uiso   1.00
C1095  C     0.60787   0.73929   0.36313   0.00000  Uiso   1.00
C1096  C     0.64317   0.75834   0.36901   0.00000  Uiso   1.00
C1097  C     0.63670   0.70562   0.29347   0.00000  Uiso   1.00
C1098  C     0.67168   0.72733   0.29712   0.00000  Uiso   1.00
C1099  C     0.56175   0.69567   0.31905   0.00000  Uiso   1.00
C1100  C     0.60236   0.71399   0.32265   0.00000  Uiso   1.00
C1101  C     0.70638   0.78135   0.32857   0.00000  Uiso   1.00
C1102  C     0.67397   0.75580   0.33135   0.00000  Uiso   1.00
C1103  C     0.54658   0.61809   0.69366   0.00000  Uiso   1.00
C1104  C     0.60618   0.74176   0.61074   0.00000  Uiso   1.00
C1105  C     0.64390   0.75748   0.61692   0.00000  Uiso   1.00
C1106  C     0.62884   0.71558   0.52771   0.00000  Uiso   1.00
C1107  C     0.66547   0.73668   0.53141   0.00000  Uiso   1.00
C1108  C     0.56044   0.69959   0.56603   0.00000  Uiso   1.00
C1109  C     0.59955   0.71775   0.56760   0.00000  Uiso   1.00
C1110  C     0.70720   0.78332   0.57747   0.00000  Uiso   1.00
C1111  C     0.67392   0.75713   0.57705   0.00000  Uiso   1.00
C1112  C     0.54402   0.61779   0.94042   0.00000  Uiso   1.00
C1113  C     0.60906   0.73968   0.86730   0.00000  Uiso   1.00
C1114  C     0.64380   0.76132   0.86759   0.00000  Uiso   1.00
C1115  C     0.62905   0.71311   0.78205   0.00000  Uiso   1.00
C1116  C     0.66205   0.73811   0.78202   0.00000  Uiso   1.00
C1117  C     0.56325   0.69809   0.82068   0.00000  Uiso   1.00
C1118  C     0.60213   0.71567   0.82488   0.00000  Uiso   1.00
C1119  C     0.70457   0.78668   0.82658   0.00000  Uiso   1.00
C1120  C     0.67042   0.76047   0.82645   0.00000  Uiso   1.00
C1121  C     0.62515   0.88345   0.15318   0.00000  Uiso   1.00
C1122  C     0.58974   0.90488   0.15293   0.00000  Uiso   1.00
C1123  C     0.68955   0.86463   0.19928   0.00000  Uiso   1.00
C1124  C     0.64999   0.88361   0.19683   0.00000  Uiso   1.00
C1125  C     0.54301   0.94804   0.19518   0.00000  Uiso   1.00
C1126  C     0.57931   0.92441   0.19717   0.00000  Uiso   1.00
C1127  C     0.64112   0.90659   0.23902   0.00000  Uiso   1.00
C1128  C     0.60615   0.92740   0.23957   0.00000  Uiso   1.00
C1129  C     0.62398   0.87997   0.40628   0.00000  Uiso   1.00
C1130  C     0.58814   0.90097   0.40678   0.00000  Uiso   1.00
C1131  C     0.69141   0.86588   0.45139   0.00000  Uiso   1.00
C1132  C     0.65172   0.88456   0.44889   0.00000  Uiso   1.00
C1133  C     0.54141   0.94621   0.44651   0.00000  Uiso   1.00
C1134  C     0.57714   0.92266   0.44965   0.00000  Uiso   1.00
C1135  C     0.60275   0.92339   0.49250   0.00000  Uiso   1.00
C1136  C     0.63999   0.90577   0.49181   0.00000  Uiso   1.00
C1137  C     0.62112   0.88168   0.65709   0.00000  Uiso   1.00
C1138  C     0.58578   0.90237   0.65808   0.00000  Uiso   1.00
C1139  C     0.68915   0.86765   0.69979   0.00000  Uiso   1.00
C1140  C     0.64980   0.88748   0.69842   0.00000  Uiso   1.00
C1141  C     0.54083   0.94799   0.69735   0.00000  Uiso   1.00
C1142  C     0.57547   0.92512   0.70022   0.00000  Uiso   1.00
C1143  C     0.63960   0.90869   0.74099   0.00000  Uiso   1.00
C1144  C     0.60126   0.92685   0.74267   0.00000  Uiso   1.00
C1145  C     0.62400   0.88679   0.90461   0.00000  Uiso   1.00
C1146  C     0.58964   0.90887   0.90198   0.00000  Uiso   1.00
C1147  C     0.68867   0.86838   0.95283   0.00000  Uiso   1.00
C1148  C     0.64742   0.88577   0.95131   0.00000  Uiso   1.00
C1149  C     0.53828   0.94739   0.94616   0.00000  Uiso   1.00
C1150  C     0.57310   0.92313   0.94705   0.00000  Uiso   1.00
C1151  C     0.63329   0.90514   0.99511   0.00000  Uiso   1.00
C1152  C     0.59503   0.92120   0.99317   0.00000  Uiso   1.00
C1153  C     0.87591   0.11572   0.03056   0.00000  Uiso   1.00
C1154  C     0.91071   0.09503   0.03112   0.00000  Uiso   1.00
C1155  C     0.81014   0.13371   0.07031   0.00000  Uiso   1.00
C1156  C     0.84829   0.11463   0.07209   0.00000  Uiso   1.00
C1157  C     0.95160   0.04638   0.07214   0.00000  Uiso   1.00
C1158  C     0.91880   0.07393   0.07564   0.00000  Uiso   1.00
C1159  C     0.85816   0.09359   0.11540   0.00000  Uiso   1.00
C1160  C     0.89398   0.07515   0.11848   0.00000  Uiso   1.00
C1161  C     0.87604   0.11887   0.27928   0.00000  Uiso   1.00
C1162  C     0.91139   0.09750   0.27985   0.00000  Uiso   1.00
C1163  C     0.80829   0.13447   0.32114   0.00000  Uiso   1.00
C1164  C     0.84809   0.11504   0.32127   0.00000  Uiso   1.00
C1165  C     0.95371   0.04719   0.31905   0.00000  Uiso   1.00
C1166  C     0.91985   0.07449   0.32179   0.00000  Uiso   1.00
C1167  C     0.85840   0.09249   0.36437   0.00000  Uiso   1.00
C1168  C     0.89550   0.07358   0.36495   0.00000  Uiso   1.00
C1169  C     0.87875   0.11940   0.53387   0.00000  Uiso   1.00
C1170  C     0.91615   0.10097   0.53519   0.00000  Uiso   1.00
C1171  C     0.80977   0.13237   0.57232   0.00000  Uiso   1.00
C1172  C     0.85000   0.11566   0.57365   0.00000  Uiso   1.00
C1173  C     0.95623   0.04899   0.57007   0.00000  Uiso   1.00
C1174  C     0.92297   0.07580   0.57496   0.00000  Uiso   1.00
C1175  C     0.86170   0.09290   0.61733   0.00000  Uiso   1.00
C1176  C     0.89907   0.07504   0.61827   0.00000  Uiso   1.00
C1177  C     0.87750   0.11645   0.77934   0.00000  Uiso   1.00
C1178  C     0.91251   0.09449   0.78022   0.00000  Uiso   1.00
C1179  C     0.81206   0.13476   0.82094   0.00000  Uiso   1.00
C1180  C     0.84955   0.11429   0.82187   0.00000  Uiso   1.00
C1181  C     0.95381   0.04660   0.82254   0.00000  Uiso   1.00
C1182  C     0.91981   0.07206   0.82340   0.00000  Uiso   1.00
C1183  C     0.86012   0.09407   0.86703   0.00000  Uiso   1.00
C1184  C     0.89679   0.07564   0.86726   0.00000  Uiso   1.00
C1185  C     0.88892   0.25967   0.23293   0.00000  Uiso   1.00
C1186  C     0.85222   0.24112   0.23642   0.00000  Uiso   1.00
C1187  C     0.86911   0.28630   0.14917   0.00000  Uiso   1.00
C1188  C     0.83486   0.26471   0.14952   0.00000  Uiso   1.00
C1189  C     0.93612   0.30207   0.19124   0.00000  Uiso   1.00
C1190  C     0.89777   0.28112   0.18972   0.00000  Uiso   1.00
C1191  C     0.79127   0.21552   0.19557   0.00000  Uiso   1.00
C1192  C     0.82532   0.24255   0.19352   0.00000  Uiso   1.00
C1193  C     0.95378   0.38364   0.06814   0.00000  Uiso   1.00
C1194  C     0.88865   0.26218   0.48517   0.00000  Uiso   1.00
C1195  C     0.85221   0.24295   0.49027   0.00000  Uiso   1.00
C1196  C     0.86786   0.28708   0.40265   0.00000  Uiso   1.00
C1197  C     0.83295   0.26518   0.40503   0.00000  Uiso   1.00
C1198  C     0.93625   0.30609   0.44117   0.00000  Uiso   1.00
C1199  C     0.89744   0.28515   0.44347   0.00000  Uiso   1.00
C1200  C     0.79179   0.21643   0.44731   0.00000  Uiso   1.00
C1201  C     0.82562   0.24352   0.44888   0.00000  Uiso   1.00
C1202  C     0.95952   0.38767   0.31615   0.00000  Uiso   1.00
C1203  C     0.89293   0.26025   0.98636   0.00000  Uiso   1.00
C1204  C     0.89163   0.26184   0.73008   0.00000  Uiso   1.00
C1205  C     0.85489   0.24345   0.73372   0.00000  Uiso   1.00
C1206  C     0.87260   0.28411   0.64448   0.00000  Uiso   1.00
C1207  C     0.83837   0.26136   0.64611   0.00000  Uiso   1.00
C1208  C     0.93925   0.30246   0.68559   0.00000  Uiso   1.00
C1209  C     0.90124   0.28061   0.68611   0.00000  Uiso   1.00
C1210  C     0.79631   0.21313   0.69112   0.00000  Uiso   1.00
C1211  C     0.82869   0.24080   0.69106   0.00000  Uiso   1.00
C1212  C     0.96084   0.38612   0.56719   0.00000  Uiso   1.00
C1213  C     0.85645   0.24095   0.98986   0.00000  Uiso   1.00
C1214  C     0.87004   0.28879   0.90553   0.00000  Uiso   1.00
C1215  C     0.83531   0.26742   0.90897   0.00000  Uiso   1.00
C1216  C     0.93937   0.30364   0.94082   0.00000  Uiso   1.00
C1217  C     0.90086   0.28322   0.94420   0.00000  Uiso   1.00
C1218  C     0.79558   0.21525   0.94546   0.00000  Uiso   1.00
C1219  C     0.82985   0.24044   0.94771   0.00000  Uiso   1.00
C1220  C     0.95525   0.38436   0.81544   0.00000  Uiso   1.00
C1221  C     0.90340   0.41744   0.36402   0.00000  Uiso   1.00
C1222  C     0.89579   0.58765   0.48449   0.00000  Uiso   1.00
C1223  C     0.86616   0.43379   0.36064   0.00000  Uiso   1.00
C1224  C     0.79805   0.54632   0.44385   0.00000  Uiso   1.00
C1225  C     0.87609   0.45210   0.02335   0.00000  Uiso   1.00
C1226  C     0.92233   0.41077   0.07036   0.00000  Uiso   1.00
C1227  C     0.91188   0.42898   0.02471   0.00000  Uiso   1.00
C1228  C     0.84965   0.57965   0.24203   0.00000  Uiso   1.00
C1229  C     0.81055   0.46865   0.06626   0.00000  Uiso   1.00
C1230  C     0.84834   0.44851   0.06475   0.00000  Uiso   1.00
C1231  C     0.85948   0.42853   0.10703   0.00000  Uiso   1.00
C1232  C     0.83036   0.57381   0.44751   0.00000  Uiso   1.00
C1233  C     0.79191   0.55026   0.19500   0.00000  Uiso   1.00
C1234  C     0.82502   0.57656   0.19829   0.00000  Uiso   1.00
C1235  C     0.88332   0.46021   0.27952   0.00000  Uiso   1.00
C1236  C     0.89710   0.41188   0.11177   0.00000  Uiso   1.00
C1237  C     0.91947   0.44032   0.28105   0.00000  Uiso   1.00
C1238  C     0.81345   0.47113   0.31844   0.00000  Uiso   1.00
C1239  C     0.85537   0.45567   0.31929   0.00000  Uiso   1.00
C1240  C     0.85902   0.57020   0.48703   0.00000  Uiso   1.00
C1241  C     0.92931   0.41737   0.32145   0.00000  Uiso   1.00
C1242  C     0.83976   0.59548   0.40608   0.00000  Uiso   1.00
C1243  C     0.83707   0.59386   0.15184   0.00000  Uiso   1.00
C1244  C     0.88664   0.59803   0.23766   0.00000  Uiso   1.00
C1245  C     0.89003   0.58981   0.98063   0.00000  Uiso   1.00
C1246  C     0.82704   0.57413   0.94198   0.00000  Uiso   1.00
C1247  C     0.79367   0.55026   0.94008   0.00000  Uiso   1.00
C1248  C     0.88528   0.59764   0.74015   0.00000  Uiso   1.00
C1249  C     0.88324   0.45333   0.52663   0.00000  Uiso   1.00
C1250  C     0.91786   0.43260   0.52849   0.00000  Uiso   1.00
C1251  C     0.84733   0.58013   0.74117   0.00000  Uiso   1.00
C1252  C     0.81387   0.46514   0.56772   0.00000  Uiso   1.00
C1253  C     0.85365   0.44746   0.56771   0.00000  Uiso   1.00
C1254  C     0.90162   0.41106   0.61540   0.00000  Uiso   1.00
C1255  C     0.86392   0.42597   0.61093   0.00000  Uiso   1.00
C1256  C     0.85906   0.42598   0.85489   0.00000  Uiso   1.00
C1257  C     0.79423   0.54906   0.69163   0.00000  Uiso   1.00
C1258  C     0.82460   0.57781   0.69611   0.00000  Uiso   1.00
C1259  C     0.87928   0.45407   0.77319   0.00000  Uiso   1.00
C1260  C     0.83792   0.59473   0.65125   0.00000  Uiso   1.00
C1261  C     0.91362   0.43212   0.77406   0.00000  Uiso   1.00
C1262  C     0.81243   0.46922   0.81495   0.00000  Uiso   1.00
C1263  C     0.85002   0.44980   0.81233   0.00000  Uiso   1.00
C1264  C     0.92744   0.41134   0.57254   0.00000  Uiso   1.00
C1265  C     0.92309   0.41042   0.81748   0.00000  Uiso   1.00
C1266  C     0.85292   0.57181   0.98246   0.00000  Uiso   1.00
C1267  C     0.89707   0.40953   0.86035   0.00000  Uiso   1.00
C1268  C     0.83576   0.59699   0.89931   0.00000  Uiso   1.00
C1269  C     0.87538   0.61143   0.14648   0.00000  Uiso   1.00
C1270  C     0.87643   0.61563   0.40235   0.00000  Uiso   1.00
C1271  C     0.93739   0.63531   0.19201   0.00000  Uiso   1.00
C1272  C     0.90011   0.61388   0.19071   0.00000  Uiso   1.00
C1273  C     0.87547   0.78372   0.02447   0.00000  Uiso   1.00
C1274  C     0.91006   0.76024   0.02520   0.00000  Uiso   1.00
C1275  C     0.84921   0.78336   0.06975   0.00000  Uiso   1.00
C1276  C     0.95224   0.71109   0.06733   0.00000  Uiso   1.00
C1277  C     0.91829   0.73702   0.06727   0.00000  Uiso   1.00
C1278  C     0.85701   0.75710   0.11143   0.00000  Uiso   1.00
C1279  C     0.89266   0.73675   0.11182   0.00000  Uiso   1.00
C1280  C     0.94193   0.63155   0.44331   0.00000  Uiso   1.00
C1281  C     0.90517   0.61054   0.44122   0.00000  Uiso   1.00
C1282  C     0.87762   0.78201   0.27696   0.00000  Uiso   1.00
C1283  C     0.91078   0.75984   0.27674   0.00000  Uiso   1.00
C1284  C     0.85121   0.78126   0.31914   0.00000  Uiso   1.00
C1285  C     0.95543   0.71261   0.32053   0.00000  Uiso   1.00
C1286  C     0.92198   0.74038   0.32055   0.00000  Uiso   1.00
C1287  C     0.85989   0.75841   0.36306   0.00000  Uiso   1.00
C1288  C     0.89698   0.74064   0.36346   0.00000  Uiso   1.00
C1289  C     0.87049   0.61909   0.90002   0.00000  Uiso   1.00
C1290  C     0.87254   0.61566   0.65159   0.00000  Uiso   1.00
C1291  C     0.93856   0.63308   0.69419   0.00000  Uiso   1.00
C1292  C     0.89785   0.61469   0.69420   0.00000  Uiso   1.00
C1293  C     0.88209   0.78891   0.53671   0.00000  Uiso   1.00
C1294  C     0.91661   0.76755   0.53931   0.00000  Uiso   1.00
C1295  C     0.85149   0.78156   0.57540   0.00000  Uiso   1.00
C1296  C     0.95603   0.71585   0.57313   0.00000  Uiso   1.00
C1297  C     0.92277   0.74044   0.57898   0.00000  Uiso   1.00
C1298  C     0.86097   0.75744   0.61791   0.00000  Uiso   1.00
C1299  C     0.89588   0.73803   0.62091   0.00000  Uiso   1.00
C1300  C     0.93884   0.63274   0.94064   0.00000  Uiso   1.00
C1301  C     0.89851   0.61542   0.94125   0.00000  Uiso   1.00
C1302  C     0.87638   0.78489   0.78011   0.00000  Uiso   1.00
C1303  C     0.91011   0.76136   0.77910   0.00000  Uiso   1.00
C1304  C     0.84830   0.78218   0.82189   0.00000  Uiso   1.00
C1305  C     0.95072   0.71059   0.82255   0.00000  Uiso   1.00
C1306  C     0.91935   0.73956   0.82294   0.00000  Uiso   1.00
C1307  C     0.85806   0.75967   0.86485   0.00000  Uiso   1.00
C1308  C     0.89391   0.74170   0.86594   0.00000  Uiso   1.00
C1309  C     0.89121   0.92895   0.48813   0.00000  Uiso   1.00
C1310  C     0.85463   0.91210   0.49066   0.00000  Uiso   1.00
C1311  C     0.89125   0.92420   0.23965   0.00000  Uiso   1.00
C1312  C     0.85559   0.90454   0.24137   0.00000  Uiso   1.00
C1313  C     0.87291   0.95146   0.15650   0.00000  Uiso   1.00
C1314  C     0.83706   0.93236   0.15871   0.00000  Uiso   1.00
C1315  C     0.94044   0.96604   0.19788   0.00000  Uiso   1.00
C1316  C     0.90177   0.94719   0.19845   0.00000  Uiso   1.00
C1317  C     0.79412   0.88208   0.19855   0.00000  Uiso   1.00
C1318  C     0.82808   0.90861   0.20060   0.00000  Uiso   1.00
C1319  C     0.81069   0.80195   0.32078   0.00000  Uiso   1.00
C1320  C     0.87391   0.95155   0.40336   0.00000  Uiso   1.00
C1321  C     0.83648   0.93399   0.40683   0.00000  Uiso   1.00
C1322  C     0.94281   0.96495   0.44367   0.00000  Uiso   1.00
C1323  C     0.90330   0.94717   0.44375   0.00000  Uiso   1.00
C1324  C     0.79420   0.88529   0.44712   0.00000  Uiso   1.00
C1325  C     0.82790   0.91175   0.44929   0.00000  Uiso   1.00
C1326  C     0.81063   0.80155   0.06922   0.00000  Uiso   1.00
C1327  C     0.89121   0.92351   0.98727   0.00000  Uiso   1.00
C1328  C     0.85469   0.90814   0.99046   0.00000  Uiso   1.00
C1329  C     0.89190   0.93133   0.74295   0.00000  Uiso   1.00
C1330  C     0.85547   0.91222   0.74583   0.00000  Uiso   1.00
C1331  C     0.87411   0.95094   0.65632   0.00000  Uiso   1.00
C1332  C     0.84116   0.92789   0.65717   0.00000  Uiso   1.00
C1333  C     0.94142   0.96810   0.69504   0.00000  Uiso   1.00
C1334  C     0.90260   0.94929   0.69723   0.00000  Uiso   1.00
C1335  C     0.79767   0.88277   0.69794   0.00000  Uiso   1.00
C1336  C     0.83085   0.90801   0.70131   0.00000  Uiso   1.00
C1337  C     0.87394   0.94918   0.90259   0.00000  Uiso   1.00
C1338  C     0.83613   0.93283   0.90650   0.00000  Uiso   1.00
C1339  C     0.94110   0.96222   0.94394   0.00000  Uiso   1.00
C1340  C     0.90245   0.94300   0.94363   0.00000  Uiso   1.00
C1341  C     0.79157   0.88721   0.94951   0.00000  Uiso   1.00
C1342  C     0.82579   0.91153   0.94929   0.00000  Uiso   1.00
C1343  C     0.81232   0.80167   0.57401   0.00000  Uiso   1.00
C1344  C     0.81166   0.80564   0.82441   0.00000  Uiso   1.00
O1345  O     0.04781   0.02209   0.36753   0.00000  Uiso   1.00
O1346  O     0.03614   0.03444   0.28218   0.00000  Uiso   1.00
O1347  O     0.20024   0.18887   0.39366   0.00000  Uiso   1.00
O1348  O     0.22345   0.12803   0.35757   0.00000  Uiso   1.00
O1349  O     0.20947   0.13552   0.27291   0.00000  Uiso   1.00
O1350  O     0.22454   0.12596   0.10899   0.00000  Uiso   1.00
O1351  O     0.20130   0.18479   0.14820   0.00000  Uiso   1.00
O1352  O     0.04547   0.01796   0.11739   0.00000  Uiso   1.00
O1353  O     0.21113   0.13494   0.02396   0.00000  Uiso   1.00
O1354  O     0.04007   0.02668   0.02999   0.00000  Uiso   1.00
O1355  O     0.20228   0.18659   0.89742   0.00000  Uiso   1.00
O1356  O     0.03883   0.03254   0.78078   0.00000  Uiso   1.00
O1357  O     0.22180   0.12721   0.85897   0.00000  Uiso   1.00
O1358  O     0.20100   0.18396   0.64422   0.00000  Uiso   1.00
O1359  O     0.21003   0.13295   0.77195   0.00000  Uiso   1.00
O1360  O     0.22621   0.12507   0.60690   0.00000  Uiso   1.00
O1361  O     0.04940   0.01958   0.61620   0.00000  Uiso   1.00
O1362  O     0.21237   0.13613   0.52039   0.00000  Uiso   1.00
O1363  O     0.03831   0.03350   0.52992   0.00000  Uiso   1.00
O1364  O     0.04653   0.02506   0.86973   0.00000  Uiso   1.00
O1365  O     0.20950   0.19655   0.73116   0.00000  Uiso   1.00
O1366  O     0.20905   0.19971   0.98514   0.00000  Uiso   1.00
O1367  O     0.03903   0.36080   0.28022   0.00000  Uiso   1.00
O1368  O     0.03104   0.29931   0.24189   0.00000  Uiso   1.00
O1369  O     0.04798   0.34927   0.36802   0.00000  Uiso   1.00
O1370  O     0.01824   0.28911   0.40266   0.00000  Uiso   1.00
O1371  O     0.04496   0.35512   0.11465   0.00000  Uiso   1.00
O1372  O     0.03800   0.36570   0.02734   0.00000  Uiso   1.00
O1373  O     0.03356   0.30211   0.48638   0.00000  Uiso   1.00
O1374  O     0.02606   0.29332   0.15195   0.00000  Uiso   1.00
O1375  O     0.21293   0.20017   0.23366   0.00000  Uiso   1.00
O1376  O     0.21088   0.20002   0.48176   0.00000  Uiso   1.00
O1377  O     0.04988   0.35004   0.61280   0.00000  Uiso   1.00
O1378  O     0.03879   0.36632   0.77327   0.00000  Uiso   1.00
O1379  O     0.04753   0.35563   0.85995   0.00000  Uiso   1.00
O1380  O     0.02566   0.29434   0.89806   0.00000  Uiso   1.00
O1381  O     0.02150   0.29203   0.65052   0.00000  Uiso   1.00
O1382  O     0.04044   0.36464   0.52403   0.00000  Uiso   1.00
O1383  O     0.03616   0.30453   0.98695   0.00000  Uiso   1.00
O1384  O     0.03768   0.30369   0.73592   0.00000  Uiso   1.00
O1385  O     0.21357   0.46942   0.11570   0.00000  Uiso   1.00
O1386  O     0.22308   0.45631   0.27771   0.00000  Uiso   1.00
O1387  O     0.21052   0.53122   0.40511   0.00000  Uiso   1.00
O1388  O     0.22323   0.45984   0.02773   0.00000  Uiso   1.00
O1389  O     0.21144   0.46766   0.36592   0.00000  Uiso   1.00
O1390  O     0.20062   0.51500   0.23718   0.00000  Uiso   1.00
O1391  O     0.19976   0.51811   0.49165   0.00000  Uiso   1.00
O1392  O     0.21200   0.53082   0.15283   0.00000  Uiso   1.00
O1393  O     0.22277   0.45949   0.52891   0.00000  Uiso   1.00
O1394  O     0.20955   0.47053   0.61683   0.00000  Uiso   1.00
O1395  O     0.21309   0.47215   0.86639   0.00000  Uiso   1.00
O1396  O     0.20798   0.53320   0.65590   0.00000  Uiso   1.00
O1397  O     0.20329   0.52195   0.98595   0.00000  Uiso   1.00
O1398  O     0.20215   0.51880   0.74295   0.00000  Uiso   1.00
O1399  O     0.23019   0.45901   0.78119   0.00000  Uiso   1.00
O1400  O     0.21732   0.53655   0.90155   0.00000  Uiso   1.00
O1401  O     0.04972   0.68036   0.26791   0.00000  Uiso   1.00
O1402  O     0.22531   0.78569   0.27779   0.00000  Uiso   1.00
O1403  O     0.04722   0.67784   0.01744   0.00000  Uiso   1.00
O1404  O     0.03852   0.69543   0.35614   0.00000  Uiso   1.00
O1405  O     0.03717   0.63267   0.39719   0.00000  Uiso   1.00
O1406  O     0.03773   0.63535   0.14690   0.00000  Uiso   1.00
O1407  O     0.02006   0.62031   0.22789   0.00000  Uiso   1.00
O1408  O     0.03442   0.69626   0.10130   0.00000  Uiso   1.00
O1409  O     0.02365   0.62660   0.48441   0.00000  Uiso   1.00
O1410  O     0.23026   0.78555   0.02707   0.00000  Uiso   1.00
O1411  O     0.20979   0.79807   0.10847   0.00000  Uiso   1.00
O1412  O     0.03532   0.69925   0.85653   0.00000  Uiso   1.00
O1413  O     0.04671   0.67912   0.77438   0.00000  Uiso   1.00
O1414  O     0.22859   0.78909   0.52651   0.00000  Uiso   1.00
O1415  O     0.04697   0.68588   0.51762   0.00000  Uiso   1.00
O1416  O     0.02320   0.62197   0.97879   0.00000  Uiso   1.00
O1417  O     0.04065   0.63258   0.64895   0.00000  Uiso   1.00
O1418  O     0.02055   0.62233   0.73222   0.00000  Uiso   1.00
O1419  O     0.04104   0.63633   0.89420   0.00000  Uiso   1.00
O1420  O     0.04212   0.69504   0.60842   0.00000  Uiso   1.00
O1421  O     0.22637   0.79044   0.77871   0.00000  Uiso   1.00
O1422  O     0.19756   0.84667   0.48604   0.00000  Uiso   1.00
O1423  O     0.03973   0.96994   0.49265   0.00000  Uiso   1.00
O1424  O     0.02665   0.95818   0.15823   0.00000  Uiso   1.00
O1425  O     0.21214   0.86234   0.15084   0.00000  Uiso   1.00
O1426  O     0.03942   0.97071   0.24528   0.00000  Uiso   1.00
O1427  O     0.19965   0.84427   0.23513   0.00000  Uiso   1.00
O1428  O     0.02700   0.96053   0.40615   0.00000  Uiso   1.00
O1429  O     0.21225   0.86428   0.40194   0.00000  Uiso   1.00
O1430  O     0.20971   0.80122   0.36105   0.00000  Uiso   1.00
O1431  O     0.03402   0.96182   0.99372   0.00000  Uiso   1.00
O1432  O     0.20137   0.84488   0.98744   0.00000  Uiso   1.00
O1433  O     0.02171   0.95913   0.65684   0.00000  Uiso   1.00
O1434  O     0.21236   0.86794   0.65265   0.00000  Uiso   1.00
O1435  O     0.04113   0.97254   0.74107   0.00000  Uiso   1.00
O1436  O     0.20174   0.85107   0.73893   0.00000  Uiso   1.00
O1437  O     0.03542   0.96045   0.90368   0.00000  Uiso   1.00
O1438  O     0.21351   0.86404   0.90349   0.00000  Uiso   1.00
O1439  O     0.20689   0.80682   0.61124   0.00000  Uiso   1.00
O1440  O     0.21062   0.80115   0.86227   0.00000  Uiso   1.00
O1441  O     0.47164   0.03818   0.28083   0.00000  Uiso   1.00
O1442  O     0.28609   0.13502   0.27767   0.00000  Uiso   1.00
O1443  O     0.29642   0.15108   0.36343   0.00000  Uiso   1.00
O1444  O     0.29723   0.15176   0.11209   0.00000  Uiso   1.00
O1445  O     0.46094   0.02856   0.36789   0.00000  Uiso   1.00
O1446  O     0.47316   0.03976   0.03226   0.00000  Uiso   1.00
O1447  O     0.28825   0.13916   0.02572   0.00000  Uiso   1.00
O1448  O     0.46013   0.03001   0.11751   0.00000  Uiso   1.00
O1449  O     0.29045   0.19814   0.23813   0.00000  Uiso   1.00
O1450  O     0.29798   0.15001   0.61146   0.00000  Uiso   1.00
O1451  O     0.28930   0.13745   0.77635   0.00000  Uiso   1.00
O1452  O     0.29400   0.14876   0.86330   0.00000  Uiso   1.00
O1453  O     0.45907   0.03436   0.86824   0.00000  Uiso   1.00
O1454  O     0.47259   0.04127   0.78102   0.00000  Uiso   1.00
O1455  O     0.46911   0.03744   0.53073   0.00000  Uiso   1.00
O1456  O     0.28961   0.13798   0.52528   0.00000  Uiso   1.00
O1457  O     0.45682   0.02854   0.61925   0.00000  Uiso   1.00
O1458  O     0.46344   0.37006   0.27421   0.00000  Uiso   1.00
O1459  O     0.46134   0.30466   0.23273   0.00000  Uiso   1.00
O1460  O     0.27425   0.21196   0.40013   0.00000  Uiso   1.00
O1461  O     0.45254   0.31800   0.14664   0.00000  Uiso   1.00
O1462  O     0.46415   0.36928   0.02362   0.00000  Uiso   1.00
O1463  O     0.47835   0.37573   0.11093   0.00000  Uiso   1.00
O1464  O     0.45242   0.32150   0.39786   0.00000  Uiso   1.00
O1465  O     0.46030   0.30715   0.48393   0.00000  Uiso   1.00
O1466  O     0.48363   0.37930   0.35777   0.00000  Uiso   1.00
O1467  O     0.27152   0.21198   0.15525   0.00000  Uiso   1.00
O1468  O     0.28618   0.20261   0.48891   0.00000  Uiso   1.00
O1469  O     0.27471   0.20953   0.90031   0.00000  Uiso   1.00
O1470  O     0.45607   0.31163   0.89416   0.00000  Uiso   1.00
O1471  O     0.46089   0.30536   0.73541   0.00000  Uiso   1.00
O1472  O     0.46355   0.36843   0.77178   0.00000  Uiso   1.00
O1473  O     0.45390   0.31288   0.64732   0.00000  Uiso   1.00
O1474  O     0.46444   0.37143   0.52109   0.00000  Uiso   1.00
O1475  O     0.47321   0.37613   0.61099   0.00000  Uiso   1.00
O1476  O     0.47503   0.37433   0.86022   0.00000  Uiso   1.00
O1477  O     0.46022   0.30562   0.98318   0.00000  Uiso   1.00
O1478  O     0.27503   0.20888   0.65058   0.00000  Uiso   1.00
O1479  O     0.28572   0.20224   0.98896   0.00000  Uiso   1.00
O1480  O     0.28507   0.20134   0.73830   0.00000  Uiso   1.00
O1481  O     0.28907   0.46698   0.36139   0.00000  Uiso   1.00
O1482  O     0.29202   0.47083   0.11063   0.00000  Uiso   1.00
O1483  O     0.28844   0.53165   0.14982   0.00000  Uiso   1.00
O1484  O     0.27327   0.54608   0.48602   0.00000  Uiso   1.00
O1485  O     0.28927   0.53388   0.40013   0.00000  Uiso   1.00
O1486  O     0.27609   0.53891   0.23731   0.00000  Uiso   1.00
O1487  O     0.29754   0.47984   0.02418   0.00000  Uiso   1.00
O1488  O     0.29821   0.47765   0.27409   0.00000  Uiso   1.00
O1489  O     0.27266   0.54461   0.73519   0.00000  Uiso   1.00
O1490  O     0.28899   0.46891   0.85957   0.00000  Uiso   1.00
O1491  O     0.28737   0.47348   0.60831   0.00000  Uiso   1.00
O1492  O     0.29694   0.48808   0.52490   0.00000  Uiso   1.00
O1493  O     0.28403   0.53798   0.64946   0.00000  Uiso   1.00
O1494  O     0.28049   0.54227   0.98754   0.00000  Uiso   1.00
O1495  O     0.29296   0.53464   0.89853   0.00000  Uiso   1.00
O1496  O     0.30093   0.48780   0.77481   0.00000  Uiso   1.00
O1497  O     0.46267   0.63198   0.40535   0.00000  Uiso   1.00
O1498  O     0.46277   0.69471   0.36511   0.00000  Uiso   1.00
O1499  O     0.45265   0.64640   0.49135   0.00000  Uiso   1.00
O1500  O     0.47683   0.70744   0.27803   0.00000  Uiso   1.00
O1501  O     0.48209   0.71137   0.03184   0.00000  Uiso   1.00
O1502  O     0.46393   0.69905   0.11660   0.00000  Uiso   1.00
O1503  O     0.46269   0.63297   0.15479   0.00000  Uiso   1.00
O1504  O     0.45367   0.64786   0.24079   0.00000  Uiso   1.00
O1505  O     0.28641   0.79852   0.35414   0.00000  Uiso   1.00
O1506  O     0.28871   0.79714   0.10536   0.00000  Uiso   1.00
O1507  O     0.45232   0.65396   0.98989   0.00000  Uiso   1.00
O1508  O     0.46145   0.69705   0.86446   0.00000  Uiso   1.00
O1509  O     0.47352   0.70650   0.52733   0.00000  Uiso   1.00
O1510  O     0.47609   0.71002   0.78102   0.00000  Uiso   1.00
O1511  O     0.46153   0.69890   0.61527   0.00000  Uiso   1.00
O1512  O     0.46279   0.63581   0.90692   0.00000  Uiso   1.00
O1513  O     0.46270   0.63602   0.65568   0.00000  Uiso   1.00
O1514  O     0.45245   0.65055   0.74152   0.00000  Uiso   1.00
O1515  O     0.28575   0.79786   0.85319   0.00000  Uiso   1.00
O1516  O     0.44857   0.97497   0.49244   0.00000  Uiso   1.00
O1517  O     0.28738   0.86252   0.39278   0.00000  Uiso   1.00
O1518  O     0.29966   0.81301   0.01788   0.00000  Uiso   1.00
O1519  O     0.29665   0.81354   0.27064   0.00000  Uiso   1.00
O1520  O     0.26913   0.87191   0.22839   0.00000  Uiso   1.00
O1521  O     0.44939   0.97520   0.24197   0.00000  Uiso   1.00
O1522  O     0.29018   0.85884   0.14517   0.00000  Uiso   1.00
O1523  O     0.45786   0.96481   0.15434   0.00000  Uiso   1.00
O1524  O     0.26650   0.87547   0.47439   0.00000  Uiso   1.00
O1525  O     0.45627   0.96579   0.40483   0.00000  Uiso   1.00
O1526  O     0.28974   0.86174   0.89459   0.00000  Uiso   1.00
O1527  O     0.44641   0.98102   0.99575   0.00000  Uiso   1.00
O1528  O     0.29750   0.81678   0.76784   0.00000  Uiso   1.00
O1529  O     0.28437   0.80112   0.60462   0.00000  Uiso   1.00
O1530  O     0.27395   0.87701   0.73342   0.00000  Uiso   1.00
O1531  O     0.29964   0.81964   0.51924   0.00000  Uiso   1.00
O1532  O     0.44938   0.98106   0.74490   0.00000  Uiso   1.00
O1533  O     0.28988   0.86353   0.64900   0.00000  Uiso   1.00
O1534  O     0.46181   0.96400   0.65962   0.00000  Uiso   1.00
O1535  O     0.27126   0.87304   0.97974   0.00000  Uiso   1.00
O1536  O     0.45441   0.96917   0.90879   0.00000  Uiso   1.00
O1537  O     0.71025   0.13247   0.27593   0.00000  Uiso   1.00
O1538  O     0.72438   0.12556   0.36420   0.00000  Uiso   1.00
O1539  O     0.69981   0.18346   0.14709   0.00000  Uiso   1.00
O1540  O     0.72293   0.12254   0.10766   0.00000  Uiso   1.00
O1541  O     0.54548   0.01537   0.27694   0.00000  Uiso   1.00
O1542  O     0.53837   0.02918   0.11440   0.00000  Uiso   1.00
O1543  O     0.53816   0.02490   0.36564   0.00000  Uiso   1.00
O1544  O     0.71063   0.13164   0.01750   0.00000  Uiso   1.00
O1545  O     0.54305   0.01624   0.02720   0.00000  Uiso   1.00
O1546  O     0.70045   0.18428   0.39717   0.00000  Uiso   1.00
O1547  O     0.70552   0.19561   0.23431   0.00000  Uiso   1.00
O1548  O     0.70754   0.19361   0.48527   0.00000  Uiso   1.00
O1549  O     0.70869   0.19555   0.98264   0.00000  Uiso   1.00
O1550  O     0.70012   0.18291   0.64935   0.00000  Uiso   1.00
O1551  O     0.70431   0.18839   0.89346   0.00000  Uiso   1.00
O1552  O     0.71086   0.13456   0.77538   0.00000  Uiso   1.00
O1553  O     0.72258   0.12015   0.61176   0.00000  Uiso   1.00
O1554  O     0.54783   0.01456   0.77883   0.00000  Uiso   1.00
O1555  O     0.53575   0.02879   0.60987   0.00000  Uiso   1.00
O1556  O     0.72389   0.12592   0.86208   0.00000  Uiso   1.00
O1557  O     0.71246   0.12813   0.52465   0.00000  Uiso   1.00
O1558  O     0.54369   0.01514   0.52436   0.00000  Uiso   1.00
O1559  O     0.71397   0.19733   0.73508   0.00000  Uiso   1.00
O1560  O     0.53642   0.02925   0.86583   0.00000  Uiso   1.00
O1561  O     0.54012   0.36648   0.27864   0.00000  Uiso   1.00
O1562  O     0.53419   0.30121   0.49029   0.00000  Uiso   1.00
O1563  O     0.55377   0.34587   0.36123   0.00000  Uiso   1.00
O1564  O     0.52257   0.29086   0.40481   0.00000  Uiso   1.00
O1565  O     0.53774   0.30256   0.24115   0.00000  Uiso   1.00
O1566  O     0.54353   0.36155   0.02679   0.00000  Uiso   1.00
O1567  O     0.52390   0.29113   0.15448   0.00000  Uiso   1.00
O1568  O     0.55266   0.34807   0.11344   0.00000  Uiso   1.00
O1569  O     0.54588   0.35523   0.61554   0.00000  Uiso   1.00
O1570  O     0.54201   0.36388   0.77523   0.00000  Uiso   1.00
O1571  O     0.54852   0.35349   0.86312   0.00000  Uiso   1.00
O1572  O     0.53709   0.29851   0.98930   0.00000  Uiso   1.00
O1573  O     0.53144   0.29234   0.90110   0.00000  Uiso   1.00
O1574  O     0.53604   0.30196   0.73724   0.00000  Uiso   1.00
O1575  O     0.53999   0.36349   0.52817   0.00000  Uiso   1.00
O1576  O     0.52615   0.29322   0.64981   0.00000  Uiso   1.00
O1577  O     0.71272   0.52982   0.40282   0.00000  Uiso   1.00
O1578  O     0.70086   0.51419   0.24055   0.00000  Uiso   1.00
O1579  O     0.72334   0.46068   0.02571   0.00000  Uiso   1.00
O1580  O     0.71341   0.52922   0.15579   0.00000  Uiso   1.00
O1581  O     0.71617   0.46643   0.11696   0.00000  Uiso   1.00
O1582  O     0.71173   0.46932   0.36470   0.00000  Uiso   1.00
O1583  O     0.73019   0.45722   0.28135   0.00000  Uiso   1.00
O1584  O     0.70380   0.51696   0.48946   0.00000  Uiso   1.00
O1585  O     0.70010   0.51960   0.98718   0.00000  Uiso   1.00
O1586  O     0.72874   0.45466   0.77901   0.00000  Uiso   1.00
O1587  O     0.70239   0.51442   0.73737   0.00000  Uiso   1.00
O1588  O     0.72725   0.45586   0.52951   0.00000  Uiso   1.00
O1589  O     0.71331   0.53039   0.65276   0.00000  Uiso   1.00
O1590  O     0.71349   0.46892   0.61529   0.00000  Uiso   1.00
O1591  O     0.71021   0.53473   0.90133   0.00000  Uiso   1.00
O1592  O     0.71241   0.47007   0.86409   0.00000  Uiso   1.00
O1593  O     0.55073   0.68201   0.27402   0.00000  Uiso   1.00
O1594  O     0.72578   0.78685   0.28455   0.00000  Uiso   1.00
O1595  O     0.54186   0.63498   0.40041   0.00000  Uiso   1.00
O1596  O     0.55069   0.68483   0.02528   0.00000  Uiso   1.00
O1597  O     0.54025   0.63331   0.14809   0.00000  Uiso   1.00
O1598  O     0.52686   0.62327   0.23519   0.00000  Uiso   1.00
O1599  O     0.72579   0.79356   0.03331   0.00000  Uiso   1.00
O1600  O     0.54092   0.69545   0.11193   0.00000  Uiso   1.00
O1601  O     0.52405   0.62278   0.48521   0.00000  Uiso   1.00
O1602  O     0.53818   0.69813   0.35926   0.00000  Uiso   1.00
O1603  O     0.72182   0.79394   0.78128   0.00000  Uiso   1.00
O1604  O     0.54972   0.68815   0.77474   0.00000  Uiso   1.00
O1605  O     0.53964   0.69737   0.86207   0.00000  Uiso   1.00
O1606  O     0.54685   0.68613   0.52158   0.00000  Uiso   1.00
O1607  O     0.53952   0.63526   0.89669   0.00000  Uiso   1.00
O1608  O     0.54231   0.63732   0.65045   0.00000  Uiso   1.00
O1609  O     0.52677   0.62615   0.73664   0.00000  Uiso   1.00
O1610  O     0.53984   0.69874   0.60911   0.00000  Uiso   1.00
O1611  O     0.52298   0.62565   0.98308   0.00000  Uiso   1.00
O1612  O     0.72949   0.78937   0.53496   0.00000  Uiso   1.00
O1613  O     0.52477   0.95537   0.49023   0.00000  Uiso   1.00
O1614  O     0.70340   0.84856   0.49450   0.00000  Uiso   1.00
O1615  O     0.53794   0.96559   0.14946   0.00000  Uiso   1.00
O1616  O     0.71269   0.86520   0.15813   0.00000  Uiso   1.00
O1617  O     0.52423   0.95421   0.23876   0.00000  Uiso   1.00
O1618  O     0.69917   0.84888   0.24447   0.00000  Uiso   1.00
O1619  O     0.71338   0.80476   0.11873   0.00000  Uiso   1.00
O1620  O     0.53355   0.96159   0.40259   0.00000  Uiso   1.00
O1621  O     0.71294   0.86547   0.40751   0.00000  Uiso   1.00
O1622  O     0.71354   0.80072   0.37006   0.00000  Uiso   1.00
O1623  O     0.71298   0.80114   0.62179   0.00000  Uiso   1.00
O1624  O     0.52101   0.95533   0.98997   0.00000  Uiso   1.00
O1625  O     0.71342   0.80358   0.87084   0.00000  Uiso   1.00
O1626  O     0.53595   0.96578   0.65327   0.00000  Uiso   1.00
O1627  O     0.71011   0.86445   0.65497   0.00000  Uiso   1.00
O1628  O     0.52153   0.95534   0.74009   0.00000  Uiso   1.00
O1629  O     0.70423   0.85557   0.74270   0.00000  Uiso   1.00
O1630  O     0.53172   0.96638   0.90352   0.00000  Uiso   1.00
O1631  O     0.70731   0.86617   0.90914   0.00000  Uiso   1.00
O1632  O     0.70192   0.85504   0.99706   0.00000  Uiso   1.00
O1633  O     0.78515   0.13502   0.27925   0.00000  Uiso   1.00
O1634  O     0.79850   0.14923   0.36406   0.00000  Uiso   1.00
O1635  O     0.78475   0.19965   0.49214   0.00000  Uiso   1.00
O1636  O     0.95854   0.03126   0.27454   0.00000  Uiso   1.00
O1637  O     0.97409   0.04099   0.36076   0.00000  Uiso   1.00
O1638  O     0.79685   0.14771   0.11506   0.00000  Uiso   1.00
O1639  O     0.96295   0.03441   0.02669   0.00000  Uiso   1.00
O1640  O     0.78796   0.13421   0.02628   0.00000  Uiso   1.00
O1641  O     0.97024   0.03833   0.11434   0.00000  Uiso   1.00
O1642  O     0.78610   0.19924   0.24119   0.00000  Uiso   1.00
O1643  O     0.79128   0.19457   0.73634   0.00000  Uiso   1.00
O1644  O     0.96773   0.03497   0.86638   0.00000  Uiso   1.00
O1645  O     0.79822   0.14842   0.86465   0.00000  Uiso   1.00
O1646  O     0.79678   0.14395   0.61527   0.00000  Uiso   1.00
O1647  O     0.96145   0.03294   0.77552   0.00000  Uiso   1.00
O1648  O     0.79085   0.13248   0.77732   0.00000  Uiso   1.00
O1649  O     0.96068   0.03106   0.52744   0.00000  Uiso   1.00
O1650  O     0.79008   0.13520   0.52683   0.00000  Uiso   1.00
O1651  O     0.97698   0.04223   0.61228   0.00000  Uiso   1.00
O1652  O     0.97617   0.37709   0.36050   0.00000  Uiso   1.00
O1653  O     0.95381   0.30564   0.23610   0.00000  Uiso   1.00
O1654  O     0.96252   0.37032   0.27179   0.00000  Uiso   1.00
O1655  O     0.77239   0.20802   0.15254   0.00000  Uiso   1.00
O1656  O     0.95102   0.31449   0.14678   0.00000  Uiso   1.00
O1657  O     0.96008   0.36777   0.02273   0.00000  Uiso   1.00
O1658  O     0.97200   0.37567   0.11147   0.00000  Uiso   1.00
O1659  O     0.77417   0.20827   0.40329   0.00000  Uiso   1.00
O1660  O     0.95718   0.30636   0.48435   0.00000  Uiso   1.00
O1661  O     0.94938   0.31877   0.39611   0.00000  Uiso   1.00
O1662  O     0.77387   0.20704   0.65093   0.00000  Uiso   1.00
O1663  O     0.97316   0.37555   0.85841   0.00000  Uiso   1.00
O1664  O     0.95224   0.31509   0.89542   0.00000  Uiso   1.00
O1665  O     0.96018   0.30398   0.73029   0.00000  Uiso   1.00
O1666  O     0.96013   0.30588   0.98312   0.00000  Uiso   1.00
O1667  O     0.94967   0.31866   0.64271   0.00000  Uiso   1.00
O1668  O     0.96256   0.36803   0.52247   0.00000  Uiso   1.00
O1669  O     0.98185   0.37882   0.60732   0.00000  Uiso   1.00
O1670  O     0.96491   0.36991   0.76944   0.00000  Uiso   1.00
O1671  O     0.77838   0.20885   0.90084   0.00000  Uiso   1.00
O1672  O     0.78553   0.20024   0.99061   0.00000  Uiso   1.00
O1673  O     0.78964   0.53241   0.15115   0.00000  Uiso   1.00
O1674  O     0.78795   0.46803   0.35827   0.00000  Uiso   1.00
O1675  O     0.77622   0.54019   0.48420   0.00000  Uiso   1.00
O1676  O     0.79847   0.48397   0.02285   0.00000  Uiso   1.00
O1677  O     0.77092   0.54300   0.23663   0.00000  Uiso   1.00
O1678  O     0.79005   0.53288   0.39849   0.00000  Uiso   1.00
O1679  O     0.79094   0.46933   0.10966   0.00000  Uiso   1.00
O1680  O     0.80215   0.48735   0.27670   0.00000  Uiso   1.00
O1681  O     0.77431   0.54326   0.98379   0.00000  Uiso   1.00
O1682  O     0.79264   0.46784   0.61178   0.00000  Uiso   1.00
O1683  O     0.79127   0.53121   0.64820   0.00000  Uiso   1.00
O1684  O     0.79017   0.47184   0.85801   0.00000  Uiso   1.00
O1685  O     0.79970   0.48183   0.77172   0.00000  Uiso   1.00
O1686  O     0.80026   0.47888   0.52340   0.00000  Uiso   1.00
O1687  O     0.77359   0.54093   0.73254   0.00000  Uiso   1.00
O1688  O     0.78720   0.53595   0.89473   0.00000  Uiso   1.00
O1689  O     0.95727   0.69203   0.11012   0.00000  Uiso   1.00
O1690  O     0.96244   0.69733   0.36399   0.00000  Uiso   1.00
O1691  O     0.95317   0.64683   0.48916   0.00000  Uiso   1.00
O1692  O     0.97673   0.70645   0.27586   0.00000  Uiso   1.00
O1693  O     0.96183   0.63429   0.40021   0.00000  Uiso   1.00
O1694  O     0.97515   0.70733   0.02532   0.00000  Uiso   1.00
O1695  O     0.96345   0.63243   0.15424   0.00000  Uiso   1.00
O1696  O     0.94835   0.65074   0.23764   0.00000  Uiso   1.00
O1697  O     0.96399   0.62876   0.90333   0.00000  Uiso   1.00
O1698  O     0.95840   0.69349   0.86678   0.00000  Uiso   1.00
O1699  O     0.97305   0.71047   0.52730   0.00000  Uiso   1.00
O1700  O     0.97519   0.70607   0.78120   0.00000  Uiso   1.00
O1701  O     0.95018   0.64564   0.98589   0.00000  Uiso   1.00
O1702  O     0.96065   0.63476   0.65167   0.00000  Uiso   1.00
O1703  O     0.96345   0.69753   0.61496   0.00000  Uiso   1.00
O1704  O     0.94884   0.64859   0.73748   0.00000  Uiso   1.00
O1705  O     0.95352   0.98226   0.40130   0.00000  Uiso   1.00
O1706  O     0.77501   0.87635   0.49149   0.00000  Uiso   1.00
O1707  O     0.79758   0.81580   0.27525   0.00000  Uiso   1.00
O1708  O     0.96272   0.96713   0.48865   0.00000  Uiso   1.00
O1709  O     0.77376   0.87451   0.24168   0.00000  Uiso   1.00
O1710  O     0.96193   0.96736   0.24031   0.00000  Uiso   1.00
O1711  O     0.79050   0.86387   0.15406   0.00000  Uiso   1.00
O1712  O     0.95415   0.97704   0.15350   0.00000  Uiso   1.00
O1713  O     0.79849   0.81743   0.02694   0.00000  Uiso   1.00
O1714  O     0.78984   0.86559   0.40415   0.00000  Uiso   1.00
O1715  O     0.78913   0.80227   0.36386   0.00000  Uiso   1.00
O1716  O     0.79137   0.80317   0.11403   0.00000  Uiso   1.00
O1717  O     0.79574   0.81584   0.77943   0.00000  Uiso   1.00
O1718  O     0.77415   0.87857   0.99336   0.00000  Uiso   1.00
O1719  O     0.95741   0.97153   0.98914   0.00000  Uiso   1.00
O1720  O     0.95940   0.97010   0.90082   0.00000  Uiso   1.00
O1721  O     0.77796   0.87520   0.74239   0.00000  Uiso   1.00
O1722  O     0.80139   0.81751   0.53058   0.00000  Uiso   1.00
O1723  O     0.96410   0.96862   0.73785   0.00000  Uiso   1.00
O1724  O     0.78514   0.87061   0.90588   0.00000  Uiso   1.00
O1725  O     0.78853   0.86857   0.65223   0.00000  Uiso   1.00
O1726  O     0.95143   0.98214   0.65147   0.00000  Uiso   1.00
O1727  O     0.79093   0.80286   0.61580   0.00000  Uiso   1.00
O1728  O     0.79148   0.81030   0.86740   0.00000  Uiso   1.00
O1729  O     0.24370   0.19158   0.06736   0.00000  Uiso   1.00
O1730  O     0.00253   0.02285   0.19838   0.00000  Uiso   1.00
O1731  O     0.00483   0.02502   0.44749   0.00000  Uiso   1.00
O1732  O     0.24465   0.19189   0.31424   0.00000  Uiso   1.00
O1733  O     0.24511   0.19096   0.56705   0.00000  Uiso   1.00
O1734  O     0.24375   0.19051   0.81730   0.00000  Uiso   1.00
O1735  O     0.00430   0.02064   0.94813   0.00000  Uiso   1.00
O1736  O     0.00290   0.02496   0.69641   0.00000  Uiso   1.00
O1737  O     0.00255   0.35793   0.44196   0.00000  Uiso   1.00
O1738  O     0.00410   0.35677   0.19428   0.00000  Uiso   1.00
O1739  O     0.00283   0.35656   0.68953   0.00000  Uiso   1.00
O1740  O     0.00343   0.35857   0.94265   0.00000  Uiso   1.00
O1741  O     0.24769   0.52414   0.07060   0.00000  Uiso   1.00
O1742  O     0.24407   0.52146   0.31929   0.00000  Uiso   1.00
O1743  O     0.24733   0.52542   0.82074   0.00000  Uiso   1.00
O1744  O     0.24091   0.52670   0.56985   0.00000  Uiso   1.00
O1745  O     0.00368   0.68773   0.44255   0.00000  Uiso   1.00
O1746  O     0.00206   0.68855   0.18920   0.00000  Uiso   1.00
O1747  O     0.00166   0.68907   0.94297   0.00000  Uiso   1.00
O1748  O     0.00249   0.68777   0.69348   0.00000  Uiso   1.00
O1749  O     0.24464   0.85101   0.06658   0.00000  Uiso   1.00
O1750  O     0.24167   0.85340   0.31546   0.00000  Uiso   1.00
O1751  O     0.24408   0.85634   0.56520   0.00000  Uiso   1.00
O1752  O     0.24594   0.85586   0.81647   0.00000  Uiso   1.00
O1753  O     0.25253   0.14665   0.44027   0.00000  Uiso   1.00
O1754  O     0.49957   0.01810   0.19783   0.00000  Uiso   1.00
O1755  O     0.25219   0.14525   0.19298   0.00000  Uiso   1.00
O1756  O     0.25426   0.14361   0.69141   0.00000  Uiso   1.00
O1757  O     0.25367   0.14648   0.94413   0.00000  Uiso   1.00
O1758  O     0.49861   0.02163   0.94778   0.00000  Uiso   1.00
O1759  O     0.49641   0.31113   0.06815   0.00000  Uiso   1.00
O1760  O     0.49534   0.31184   0.31831   0.00000  Uiso   1.00
O1761  O     0.49842   0.31075   0.81812   0.00000  Uiso   1.00
O1762  O     0.49071   0.31330   0.56857   0.00000  Uiso   1.00
O1763  O     0.25412   0.47875   0.44622   0.00000  Uiso   1.00
O1764  O     0.25266   0.47565   0.19402   0.00000  Uiso   1.00
O1765  O     0.25524   0.47947   0.94524   0.00000  Uiso   1.00
O1766  O     0.25620   0.48049   0.69479   0.00000  Uiso   1.00
O1767  O     0.49438   0.64440   0.07043   0.00000  Uiso   1.00
O1768  O     0.49952   0.64124   0.31872   0.00000  Uiso   1.00
O1769  O     0.49874   0.64329   0.82019   0.00000  Uiso   1.00
O1770  O     0.49838   0.64408   0.56935   0.00000  Uiso   1.00
O1771  O     0.25199   0.80791   0.44009   0.00000  Uiso   1.00
O1772  O     0.25430   0.80509   0.19050   0.00000  Uiso   1.00
O1773  O     0.49398   0.97251   0.32382   0.00000  Uiso   1.00
O1774  O     0.49394   0.97537   0.07170   0.00000  Uiso   1.00
O1775  O     0.49235   0.97703   0.82275   0.00000  Uiso   1.00
O1776  O     0.25253   0.80701   0.94063   0.00000  Uiso   1.00
O1777  O     0.25344   0.81026   0.69210   0.00000  Uiso   1.00
O1778  O     0.49320   0.97319   0.57260   0.00000  Uiso   1.00
O1779  O     0.74395   0.18547   0.06721   0.00000  Uiso   1.00
O1780  O     0.74313   0.18873   0.31941   0.00000  Uiso   1.00
O1781  O     0.50112   0.01714   0.44824   0.00000  Uiso   1.00
O1782  O     0.74760   0.18758   0.81767   0.00000  Uiso   1.00
O1783  O     0.50166   0.02004   0.69761   0.00000  Uiso   1.00
O1784  O     0.74211   0.18466   0.56999   0.00000  Uiso   1.00
O1785  O     0.50872   0.35666   0.44457   0.00000  Uiso   1.00
O1786  O     0.50584   0.35830   0.19339   0.00000  Uiso   1.00
O1787  O     0.50557   0.35553   0.94287   0.00000  Uiso   1.00
O1788  O     0.50471   0.35807   0.69374   0.00000  Uiso   1.00
O1789  O     0.74581   0.52403   0.07175   0.00000  Uiso   1.00
O1790  O     0.74366   0.52245   0.32118   0.00000  Uiso   1.00
O1791  O     0.74533   0.52403   0.81582   0.00000  Uiso   1.00
O1792  O     0.74951   0.52218   0.56995   0.00000  Uiso   1.00
O1793  O     0.50127   0.68721   0.44346   0.00000  Uiso   1.00
O1794  O     0.50537   0.68719   0.19393   0.00000  Uiso   1.00
O1795  O     0.50741   0.68913   0.94466   0.00000  Uiso   1.00
O1796  O     0.50409   0.69260   0.69493   0.00000  Uiso   1.00
O1797  O     0.74874   0.85569   0.32353   0.00000  Uiso   1.00
O1798  O     0.74712   0.85817   0.07483   0.00000  Uiso   1.00
O1799  O     0.74808   0.85469   0.57389   0.00000  Uiso   1.00
O1800  O     0.74556   0.86004   0.82564   0.00000  Uiso   1.00
O1801  O     0.75441   0.14474   0.44421   0.00000  Uiso   1.00
O1802  O     0.75303   0.14336   0.19559   0.00000  Uiso   1.00
O1803  O     0.75496   0.14534   0.94229   0.00000  Uiso   1.00
O1804  O     0.75218   0.14072   0.69498   0.00000  Uiso   1.00
O1805  O     0.99068   0.31087   0.31849   0.00000  Uiso   1.00
O1806  O     0.99373   0.31331   0.06716   0.00000  Uiso   1.00
O1807  O     0.99371   0.31356   0.81619   0.00000  Uiso   1.00
O1808  O     0.99737   0.31275   0.56706   0.00000  Uiso   1.00
O1809  O     0.75576   0.47769   0.44437   0.00000  Uiso   1.00
O1810  O     0.76019   0.47780   0.19470   0.00000  Uiso   1.00
O1811  O     0.75820   0.47702   0.69454   0.00000  Uiso   1.00
O1812  O     0.75554   0.48088   0.94236   0.00000  Uiso   1.00
O1813  O     0.99537   0.64219   0.31636   0.00000  Uiso   1.00
O1814  O     0.99323   0.63935   0.06517   0.00000  Uiso   1.00
O1815  O     0.99337   0.64074   0.81876   0.00000  Uiso   1.00
O1816  O     0.99996   0.64238   0.56475   0.00000  Uiso   1.00
O1817  O     0.75721   0.81140   0.44717   0.00000  Uiso   1.00
O1818  O     0.99439   0.97626   0.07234   0.00000  Uiso   1.00
O1819  O     0.99455   0.97846   0.32327   0.00000  Uiso   1.00
O1820  O     0.75294   0.80922   0.19852   0.00000  Uiso   1.00
O1821  O     0.75420   0.81531   0.94897   0.00000  Uiso   1.00
O1822  O     0.99628   0.97751   0.57365   0.00000  Uiso   1.00
O1823  O     0.99967   0.97791   0.81984   0.00000  Uiso   1.00
O1824  O     0.75424   0.81187   0.69945   0.00000  Uiso   1.00
