data_final_Cl-Ni-SABVOH01
_audit_creation_date              2022-12-15
_audit_creation_method            'Materials Studio'
_symmetry_space_group_name_H-M    'P1'
_symmetry_Int_Tables_number       1
_symmetry_cell_setting            triclinic
loop_
_symmetry_equiv_pos_as_xyz
  x,y,z
_cell_length_a                    33.4072
_cell_length_b                    36.1043
_cell_length_c                    25.8495
_cell_angle_alpha                 90.0000
_cell_angle_beta                  90.0000
_cell_angle_gamma                 90.0000
loop_
_atom_site_label
_atom_site_type_symbol
_atom_site_fract_x
_atom_site_fract_y
_atom_site_fract_z
_atom_site_U_iso_or_equiv
_atom_site_adp_type
_atom_site_occupancy
Ni1    Ni    0.23782   0.17237   0.02706   0.00000  Uiso   1.00
Ni2    Ni    0.23773   0.17228   0.15205   0.00000  Uiso   1.00
Ni3    Ni    0.23681   0.17025   0.27538   0.00000  Uiso   1.00
Ni4    Ni    0.23884   0.17148   0.39897   0.00000  Uiso   1.00
Ni5    Ni    0.23788   0.17423   0.52283   0.00000  Uiso   1.00
Ni6    Ni    0.23874   0.17533   0.64743   0.00000  Uiso   1.00
Ni7    Ni    0.24011   0.17549   0.77240   0.00000  Uiso   1.00
Ni8    Ni    0.24004   0.17554   0.90014   0.00000  Uiso   1.00
Ni9    Ni    0.23946   0.50670   0.02884   0.00000  Uiso   1.00
Ni10   Ni    0.23839   0.50700   0.15379   0.00000  Uiso   1.00
Ni11   Ni    0.24147   0.50498   0.27943   0.00000  Uiso   1.00
Ni12   Ni    0.23948   0.50434   0.40341   0.00000  Uiso   1.00
Ni13   Ni    0.23831   0.50415   0.53067   0.00000  Uiso   1.00
Ni14   Ni    0.24017   0.50853   0.65636   0.00000  Uiso   1.00
Ni15   Ni    0.24114   0.50707   0.77947   0.00000  Uiso   1.00
Ni16   Ni    0.24142   0.50510   0.90353   0.00000  Uiso   1.00
Ni17   Ni    0.23944   0.83610   0.03382   0.00000  Uiso   1.00
Ni18   Ni    0.24208   0.83749   0.15834   0.00000  Uiso   1.00
Ni19   Ni    0.23978   0.83946   0.28189   0.00000  Uiso   1.00
Ni20   Ni    0.24020   0.83810   0.40551   0.00000  Uiso   1.00
Ni21   Ni    0.24039   0.83694   0.53034   0.00000  Uiso   1.00
Ni22   Ni    0.24005   0.83962   0.65579   0.00000  Uiso   1.00
Ni23   Ni    0.24161   0.83908   0.78177   0.00000  Uiso   1.00
Ni24   Ni    0.23828   0.83715   0.90773   0.00000  Uiso   1.00
Ni25   Ni    0.48879   0.00950   0.40418   0.00000  Uiso   1.00
Ni26   Ni    0.48972   0.00652   0.28198   0.00000  Uiso   1.00
Ni27   Ni    0.49245   0.00789   0.03153   0.00000  Uiso   1.00
Ni28   Ni    0.48975   0.00621   0.15579   0.00000  Uiso   1.00
Ni29   Ni    0.48802   0.01026   0.65626   0.00000  Uiso   1.00
Ni30   Ni    0.48775   0.00943   0.53023   0.00000  Uiso   1.00
Ni31   Ni    0.48864   0.00667   0.78045   0.00000  Uiso   1.00
Ni32   Ni    0.49102   0.00593   0.90627   0.00000  Uiso   1.00
Ni33   Ni    0.48960   0.33636   0.02631   0.00000  Uiso   1.00
Ni34   Ni    0.48970   0.33729   0.15229   0.00000  Uiso   1.00
Ni35   Ni    0.48945   0.33923   0.27625   0.00000  Uiso   1.00
Ni36   Ni    0.48981   0.33905   0.40250   0.00000  Uiso   1.00
Ni37   Ni    0.49040   0.34238   0.52731   0.00000  Uiso   1.00
Ni38   Ni    0.48912   0.34255   0.65148   0.00000  Uiso   1.00
Ni39   Ni    0.49007   0.33905   0.77641   0.00000  Uiso   1.00
Ni40   Ni    0.49004   0.34078   0.89996   0.00000  Uiso   1.00
Ni41   Ni    0.49048   0.67160   0.02649   0.00000  Uiso   1.00
Ni42   Ni    0.49078   0.67275   0.15094   0.00000  Uiso   1.00
Ni43   Ni    0.49000   0.67069   0.27641   0.00000  Uiso   1.00
Ni44   Ni    0.48939   0.67160   0.40025   0.00000  Uiso   1.00
Ni45   Ni    0.48940   0.67135   0.52687   0.00000  Uiso   1.00
Ni46   Ni    0.49053   0.67136   0.65227   0.00000  Uiso   1.00
Ni47   Ni    0.49042   0.67055   0.77487   0.00000  Uiso   1.00
Ni48   Ni    0.48923   0.67035   0.90011   0.00000  Uiso   1.00
Ni49   Ni    0.74002   0.17404   0.02815   0.00000  Uiso   1.00
Ni50   Ni    0.74284   0.17206   0.15146   0.00000  Uiso   1.00
Ni51   Ni    0.74109   0.17274   0.27803   0.00000  Uiso   1.00
Ni52   Ni    0.73850   0.17393   0.40312   0.00000  Uiso   1.00
Ni53   Ni    0.73786   0.17480   0.53094   0.00000  Uiso   1.00
Ni54   Ni    0.74005   0.17496   0.65485   0.00000  Uiso   1.00
Ni55   Ni    0.73796   0.17358   0.77988   0.00000  Uiso   1.00
Ni56   Ni    0.73844   0.17382   0.90321   0.00000  Uiso   1.00
Ni57   Ni    0.74021   0.50512   0.02885   0.00000  Uiso   1.00
Ni58   Ni    0.73865   0.50515   0.15396   0.00000  Uiso   1.00
Ni59   Ni    0.73889   0.50597   0.27966   0.00000  Uiso   1.00
Ni60   Ni    0.73804   0.50752   0.40458   0.00000  Uiso   1.00
Ni61   Ni    0.73670   0.50761   0.52751   0.00000  Uiso   1.00
Ni62   Ni    0.73933   0.50523   0.65259   0.00000  Uiso   1.00
Ni63   Ni    0.73975   0.50346   0.78024   0.00000  Uiso   1.00
Ni64   Ni    0.74129   0.50361   0.90543   0.00000  Uiso   1.00
Ni65   Ni    0.73917   0.83670   0.02205   0.00000  Uiso   1.00
Ni66   Ni    0.74079   0.83781   0.14633   0.00000  Uiso   1.00
Ni67   Ni    0.73897   0.83868   0.26979   0.00000  Uiso   1.00
Ni68   Ni    0.73779   0.83761   0.39484   0.00000  Uiso   1.00
Ni69   Ni    0.73975   0.83914   0.52022   0.00000  Uiso   1.00
Ni70   Ni    0.74006   0.84175   0.64451   0.00000  Uiso   1.00
Ni71   Ni    0.74115   0.84145   0.77054   0.00000  Uiso   1.00
Ni72   Ni    0.74076   0.83827   0.89462   0.00000  Uiso   1.00
Ni73   Ni    0.98956   0.00504   0.02589   0.00000  Uiso   1.00
Ni74   Ni    0.98770   0.00721   0.40283   0.00000  Uiso   1.00
Ni75   Ni    0.99056   0.00461   0.15279   0.00000  Uiso   1.00
Ni76   Ni    0.98949   0.00550   0.27892   0.00000  Uiso   1.00
Ni77   Ni    0.99152   0.00837   0.90138   0.00000  Uiso   1.00
Ni78   Ni    0.99041   0.00895   0.65223   0.00000  Uiso   1.00
Ni79   Ni    0.99103   0.01010   0.77551   0.00000  Uiso   1.00
Ni80   Ni    0.98829   0.00799   0.52843   0.00000  Uiso   1.00
Ni81   Ni    0.98948   0.33898   0.02503   0.00000  Uiso   1.00
Ni82   Ni    0.98846   0.34149   0.15074   0.00000  Uiso   1.00
Ni83   Ni    0.98798   0.33786   0.27691   0.00000  Uiso   1.00
Ni84   Ni    0.98888   0.33838   0.40260   0.00000  Uiso   1.00
Ni85   Ni    0.98825   0.34005   0.52695   0.00000  Uiso   1.00
Ni86   Ni    0.98995   0.34253   0.65133   0.00000  Uiso   1.00
Ni87   Ni    0.98865   0.34275   0.77721   0.00000  Uiso   1.00
Ni88   Ni    0.98805   0.33898   0.89991   0.00000  Uiso   1.00
Ni89   Ni    0.98769   0.66891   0.02650   0.00000  Uiso   1.00
Ni90   Ni    0.98769   0.66854   0.15267   0.00000  Uiso   1.00
Ni91   Ni    0.98851   0.66987   0.27778   0.00000  Uiso   1.00
Ni92   Ni    0.98893   0.67457   0.40324   0.00000  Uiso   1.00
Ni93   Ni    0.98950   0.67503   0.52936   0.00000  Uiso   1.00
Ni94   Ni    0.98855   0.67593   0.65650   0.00000  Uiso   1.00
Ni95   Ni    0.99156   0.67567   0.78069   0.00000  Uiso   1.00
Ni96   Ni    0.99082   0.67269   0.90253   0.00000  Uiso   1.00
Cl97   Cl    0.10266   0.17382   0.24966   0.00000  Uiso   1.00
Cl98   Cl    0.05262   0.11001   0.37483   0.00000  Uiso   1.00
Cl99   Cl    0.17706   0.07754   0.05342   0.00000  Uiso   1.00
Cl100  Cl    0.11911   0.00922   0.16399   0.00000  Uiso   1.00
Cl101  Cl    0.04856   0.10296   0.87389   0.00000  Uiso   1.00
Cl102  Cl    0.10728   0.17440   0.75878   0.00000  Uiso   1.00
Cl103  Cl    0.11915   0.01444   0.65673   0.00000  Uiso   1.00
Cl104  Cl    0.17289   0.07519   0.55390   0.00000  Uiso   1.00
Cl105  Cl    0.03571   0.22412   0.39300   0.00000  Uiso   1.00
Cl106  Cl    0.18614   0.28436   0.01673   0.00000  Uiso   1.00
Cl107  Cl    0.19315   0.28481   0.28074   0.00000  Uiso   1.00
Cl108  Cl    0.04016   0.22516   0.15153   0.00000  Uiso   1.00
Cl109  Cl    0.17295   0.26981   0.49373   0.00000  Uiso   1.00
Cl110  Cl    0.11513   0.33971   0.17963   0.00000  Uiso   1.00
Cl111  Cl    0.18528   0.39010   0.39604   0.00000  Uiso   1.00
Cl112  Cl    0.04702   0.23148   0.91733   0.00000  Uiso   1.00
Cl113  Cl    0.11131   0.36744   0.87131   0.00000  Uiso   1.00
Cl114  Cl    0.18287   0.27876   0.75243   0.00000  Uiso   1.00
Cl115  Cl    0.04819   0.23748   0.67049   0.00000  Uiso   1.00
Cl116  Cl    0.19314   0.38622   0.67464   0.00000  Uiso   1.00
Cl117  Cl    0.11206   0.48810   0.04393   0.00000  Uiso   1.00
Cl118  Cl    0.04793   0.56981   0.42031   0.00000  Uiso   1.00
Cl119  Cl    0.10967   0.50248   0.26852   0.00000  Uiso   1.00
Cl120  Cl    0.04173   0.55838   0.16249   0.00000  Uiso   1.00
Cl121  Cl    0.04008   0.56364   0.65884   0.00000  Uiso   1.00
Cl122  Cl    0.05283   0.57564   0.93450   0.00000  Uiso   1.00
Cl123  Cl    0.03632   0.46484   0.75150   0.00000  Uiso   1.00
Cl124  Cl    0.16901   0.59113   0.74256   0.00000  Uiso   1.00
Cl125  Cl    0.04356   0.44575   0.53706   0.00000  Uiso   1.00
Cl126  Cl    0.11478   0.67485   0.17166   0.00000  Uiso   1.00
Cl127  Cl    0.05479   0.77354   0.36900   0.00000  Uiso   1.00
Cl128  Cl    0.18370   0.61589   0.01659   0.00000  Uiso   1.00
Cl129  Cl    0.18395   0.61305   0.26134   0.00000  Uiso   1.00
Cl130  Cl    0.12212   0.68085   0.65977   0.00000  Uiso   1.00
Cl131  Cl    0.12745   0.67517   0.90581   0.00000  Uiso   1.00
Cl132  Cl    0.17425   0.60353   0.50477   0.00000  Uiso   1.00
Cl133  Cl    0.16540   0.75325   0.56683   0.00000  Uiso   1.00
Cl134  Cl    0.19182   0.95513   0.27993   0.00000  Uiso   1.00
Cl135  Cl    0.04109   0.89575   0.16666   0.00000  Uiso   1.00
Cl136  Cl    0.04787   0.89900   0.41896   0.00000  Uiso   1.00
Cl137  Cl    0.10663   0.83413   0.26657   0.00000  Uiso   1.00
Cl138  Cl    0.11248   0.82674   0.03429   0.00000  Uiso   1.00
Cl139  Cl    0.19234   0.94916   0.03516   0.00000  Uiso   1.00
Cl140  Cl    0.17703   0.93157   0.74698   0.00000  Uiso   1.00
Cl141  Cl    0.05126   0.90461   0.92191   0.00000  Uiso   1.00
Cl142  Cl    0.04337   0.90183   0.67410   0.00000  Uiso   1.00
Cl143  Cl    0.18246   0.94189   0.51010   0.00000  Uiso   1.00
Cl144  Cl    0.10402   0.83766   0.77081   0.00000  Uiso   1.00
Cl145  Cl    0.35626   0.14463   0.11887   0.00000  Uiso   1.00
Cl146  Cl    0.43883   0.12263   0.39691   0.00000  Uiso   1.00
Cl147  Cl    0.37636   0.03912   0.31540   0.00000  Uiso   1.00
Cl148  Cl    0.37849   0.04770   0.06949   0.00000  Uiso   1.00
Cl149  Cl    0.36510   0.18206   0.27354   0.00000  Uiso   1.00
Cl150  Cl    0.36792   0.16828   0.65980   0.00000  Uiso   1.00
Cl151  Cl    0.35461   0.13495   0.86371   0.00000  Uiso   1.00
Cl152  Cl    0.36752   0.02500   0.79452   0.00000  Uiso   1.00
Cl153  Cl    0.28946   0.06489   0.53269   0.00000  Uiso   1.00
Cl154  Cl    0.29963   0.27706   0.17803   0.00000  Uiso   1.00
Cl155  Cl    0.35940   0.32338   0.41284   0.00000  Uiso   1.00
Cl156  Cl    0.42797   0.23824   0.00330   0.00000  Uiso   1.00
Cl157  Cl    0.29168   0.38988   0.27784   0.00000  Uiso   1.00
Cl158  Cl    0.28832   0.29346   0.64035   0.00000  Uiso   1.00
Cl159  Cl    0.43302   0.22949   0.76671   0.00000  Uiso   1.00
Cl160  Cl    0.29717   0.28301   0.91285   0.00000  Uiso   1.00
Cl161  Cl    0.43682   0.23007   0.51743   0.00000  Uiso   1.00
Cl162  Cl    0.29395   0.39635   0.53474   0.00000  Uiso   1.00
Cl163  Cl    0.36056   0.34781   0.76732   0.00000  Uiso   1.00
Cl164  Cl    0.44145   0.55128   0.29645   0.00000  Uiso   1.00
Cl165  Cl    0.43767   0.45122   0.40006   0.00000  Uiso   1.00
Cl166  Cl    0.43272   0.45229   0.13775   0.00000  Uiso   1.00
Cl167  Cl    0.34241   0.55142   0.19958   0.00000  Uiso   1.00
Cl168  Cl    0.30029   0.40003   0.05343   0.00000  Uiso   1.00
Cl169  Cl    0.37582   0.50936   0.67730   0.00000  Uiso   1.00
Cl170  Cl    0.43113   0.56324   0.51782   0.00000  Uiso   1.00
Cl171  Cl    0.44224   0.55564   0.77604   0.00000  Uiso   1.00
Cl172  Cl    0.43036   0.44882   0.88985   0.00000  Uiso   1.00
Cl173  Cl    0.29827   0.73053   0.13185   0.00000  Uiso   1.00
Cl174  Cl    0.43243   0.77683   0.29563   0.00000  Uiso   1.00
Cl175  Cl    0.43260   0.77187   0.05348   0.00000  Uiso   1.00
Cl176  Cl    0.28424   0.62703   0.37267   0.00000  Uiso   1.00
Cl177  Cl    0.44008   0.79305   0.41604   0.00000  Uiso   1.00
Cl178  Cl    0.30355   0.74373   0.87843   0.00000  Uiso   1.00
Cl179  Cl    0.29090   0.61958   0.89117   0.00000  Uiso   1.00
Cl180  Cl    0.35805   0.66918   0.74976   0.00000  Uiso   1.00
Cl181  Cl    0.28671   0.62709   0.64605   0.00000  Uiso   1.00
Cl182  Cl    0.38792   0.62969   0.98852   0.00000  Uiso   1.00
Cl183  Cl    0.29302   0.71451   0.52150   0.00000  Uiso   1.00
Cl184  Cl    0.29853   0.95181   0.16185   0.00000  Uiso   1.00
Cl185  Cl    0.35237   0.87798   0.24215   0.00000  Uiso   1.00
Cl186  Cl    0.38900   0.95617   0.45173   0.00000  Uiso   1.00
Cl187  Cl    0.43545   0.89974   0.01146   0.00000  Uiso   1.00
Cl188  Cl    0.28356   0.95267   0.64507   0.00000  Uiso   1.00
Cl189  Cl    0.42794   0.90638   0.74983   0.00000  Uiso   1.00
Cl190  Cl    0.31282   0.92976   0.94118   0.00000  Uiso   1.00
Cl191  Cl    0.37234   0.83575   0.67561   0.00000  Uiso   1.00
Cl192  Cl    0.44478   0.88959   0.54666   0.00000  Uiso   1.00
Cl193  Cl    0.55779   0.10567   0.12545   0.00000  Uiso   1.00
Cl194  Cl    0.67884   0.07172   0.30589   0.00000  Uiso   1.00
Cl195  Cl    0.55856   0.09966   0.37254   0.00000  Uiso   1.00
Cl196  Cl    0.66841   0.08194   0.06468   0.00000  Uiso   1.00
Cl197  Cl    0.56183   0.09754   0.62353   0.00000  Uiso   1.00
Cl198  Cl    0.67714   0.07424   0.81327   0.00000  Uiso   1.00
Cl199  Cl    0.67177   0.07321   0.56212   0.00000  Uiso   1.00
Cl200  Cl    0.56168   0.10021   0.86500   0.00000  Uiso   1.00
Cl201  Cl    0.66311   0.26218   0.19406   0.00000  Uiso   1.00
Cl202  Cl    0.55002   0.23550   0.24985   0.00000  Uiso   1.00
Cl203  Cl    0.66909   0.26725   0.43468   0.00000  Uiso   1.00
Cl204  Cl    0.69919   0.39064   0.44179   0.00000  Uiso   1.00
Cl205  Cl    0.55182   0.25157   0.49663   0.00000  Uiso   1.00
Cl206  Cl    0.55362   0.24102   0.75137   0.00000  Uiso   1.00
Cl207  Cl    0.67112   0.26758   0.68407   0.00000  Uiso   1.00
Cl208  Cl    0.67893   0.27273   0.93082   0.00000  Uiso   1.00
Cl209  Cl    0.56110   0.24333   0.99091   0.00000  Uiso   1.00
Cl210  Cl    0.66116   0.59299   0.44456   0.00000  Uiso   1.00
Cl211  Cl    0.55237   0.43768   0.12918   0.00000  Uiso   1.00
Cl212  Cl    0.56005   0.57852   0.24133   0.00000  Uiso   1.00
Cl213  Cl    0.53209   0.45973   0.49923   0.00000  Uiso   1.00
Cl214  Cl    0.67218   0.41191   0.06530   0.00000  Uiso   1.00
Cl215  Cl    0.67612   0.40939   0.30715   0.00000  Uiso   1.00
Cl216  Cl    0.53123   0.54697   0.61315   0.00000  Uiso   1.00
Cl217  Cl    0.56155   0.43293   0.61587   0.00000  Uiso   1.00
Cl218  Cl    0.56000   0.42873   0.86454   0.00000  Uiso   1.00
Cl219  Cl    0.55988   0.57598   0.74639   0.00000  Uiso   1.00
Cl220  Cl    0.67600   0.40350   0.80675   0.00000  Uiso   1.00
Cl221  Cl    0.55877   0.57133   0.99882   0.00000  Uiso   1.00
Cl222  Cl    0.54910   0.77028   0.30097   0.00000  Uiso   1.00
Cl223  Cl    0.67157   0.74791   0.11399   0.00000  Uiso   1.00
Cl224  Cl    0.69081   0.72052   0.40048   0.00000  Uiso   1.00
Cl225  Cl    0.68255   0.61457   0.16896   0.00000  Uiso   1.00
Cl226  Cl    0.54278   0.78521   0.02050   0.00000  Uiso   1.00
Cl227  Cl    0.67311   0.74950   0.61312   0.00000  Uiso   1.00
Cl228  Cl    0.69620   0.72351   0.89722   0.00000  Uiso   1.00
Cl229  Cl    0.69247   0.62938   0.55762   0.00000  Uiso   1.00
Cl230  Cl    0.53999   0.78675   0.50864   0.00000  Uiso   1.00
Cl231  Cl    0.55784   0.76567   0.80944   0.00000  Uiso   1.00
Cl232  Cl    0.68680   0.60828   0.92674   0.00000  Uiso   1.00
Cl233  Cl    0.68229   0.95014   0.26303   0.00000  Uiso   1.00
Cl234  Cl    0.53999   0.89371   0.15664   0.00000  Uiso   1.00
Cl235  Cl    0.54595   0.89722   0.41496   0.00000  Uiso   1.00
Cl236  Cl    0.68924   0.94861   0.02256   0.00000  Uiso   1.00
Cl237  Cl    0.67606   0.93960   0.49235   0.00000  Uiso   1.00
Cl238  Cl    0.68703   0.95845   0.77402   0.00000  Uiso   1.00
Cl239  Cl    0.55322   0.90655   0.67838   0.00000  Uiso   1.00
Cl240  Cl    0.54190   0.89210   0.89784   0.00000  Uiso   1.00
Cl241  Cl    0.87286   0.17102   0.18000   0.00000  Uiso   1.00
Cl242  Cl    0.86025   0.00671   0.26126   0.00000  Uiso   1.00
Cl243  Cl    0.93739   0.11663   0.39847   0.00000  Uiso   1.00
Cl244  Cl    0.78585   0.04948   0.01595   0.00000  Uiso   1.00
Cl245  Cl    0.79146   0.06053   0.77694   0.00000  Uiso   1.00
Cl246  Cl    0.93694   0.12612   0.65431   0.00000  Uiso   1.00
Cl247  Cl    0.93581   0.12620   0.91173   0.00000  Uiso   1.00
Cl248  Cl    0.78900   0.06491   0.53847   0.00000  Uiso   1.00
Cl249  Cl    0.79532   0.27690   0.16706   0.00000  Uiso   1.00
Cl250  Cl    0.94092   0.22162   0.29144   0.00000  Uiso   1.00
Cl251  Cl    0.93678   0.23461   0.01383   0.00000  Uiso   1.00
Cl252  Cl    0.79100   0.29016   0.40860   0.00000  Uiso   1.00
Cl253  Cl    0.79284   0.39790   0.03865   0.00000  Uiso   1.00
Cl254  Cl    0.79878   0.39493   0.29452   0.00000  Uiso   1.00
Cl255  Cl    0.93970   0.22781   0.78011   0.00000  Uiso   1.00
Cl256  Cl    0.78816   0.28684   0.90466   0.00000  Uiso   1.00
Cl257  Cl    0.79878   0.28349   0.67410   0.00000  Uiso   1.00
Cl258  Cl    0.92743   0.23574   0.50662   0.00000  Uiso   1.00
Cl259  Cl    0.78447   0.38423   0.76762   0.00000  Uiso   1.00
Cl260  Cl    0.94384   0.55610   0.02954   0.00000  Uiso   1.00
Cl261  Cl    0.93481   0.44777   0.38847   0.00000  Uiso   1.00
Cl262  Cl    0.94294   0.55448   0.29524   0.00000  Uiso   1.00
Cl263  Cl    0.93453   0.45186   0.14840   0.00000  Uiso   1.00
Cl264  Cl    0.93497   0.45347   0.65809   0.00000  Uiso   1.00
Cl265  Cl    0.91334   0.59387   0.73812   0.00000  Uiso   1.00
Cl266  Cl    0.86836   0.51460   0.54270   0.00000  Uiso   1.00
Cl267  Cl    0.93785   0.45053   0.90170   0.00000  Uiso   1.00
Cl268  Cl    0.79395   0.40326   0.54435   0.00000  Uiso   1.00
Cl269  Cl    0.85773   0.67680   0.26604   0.00000  Uiso   1.00
Cl270  Cl    0.79244   0.72255   0.01243   0.00000  Uiso   1.00
Cl271  Cl    0.79006   0.62170   0.41181   0.00000  Uiso   1.00
Cl272  Cl    0.80148   0.60824   0.16743   0.00000  Uiso   1.00
Cl273  Cl    0.93846   0.78517   0.38918   0.00000  Uiso   1.00
Cl274  Cl    0.88162   0.71276   0.81913   0.00000  Uiso   1.00
Cl275  Cl    0.85364   0.67039   0.64012   0.00000  Uiso   1.00
Cl276  Cl    0.79472   0.73471   0.53301   0.00000  Uiso   1.00
Cl277  Cl    0.94356   0.79460   0.90894   0.00000  Uiso   1.00
Cl278  Cl    0.80055   0.60789   0.93014   0.00000  Uiso   1.00
Cl279  Cl    0.79023   0.94798   0.14765   0.00000  Uiso   1.00
Cl280  Cl    0.79420   0.94239   0.41471   0.00000  Uiso   1.00
Cl281  Cl    0.87331   0.83258   0.15838   0.00000  Uiso   1.00
Cl282  Cl    0.94089   0.88564   0.03465   0.00000  Uiso   1.00
Cl283  Cl    0.93688   0.89363   0.26441   0.00000  Uiso   1.00
Cl284  Cl    0.85778   0.99778   0.65813   0.00000  Uiso   1.00
Cl285  Cl    0.79988   0.94483   0.92100   0.00000  Uiso   1.00
Cl286  Cl    0.92986   0.91581   0.74436   0.00000  Uiso   1.00
Cl287  Cl    0.85932   0.80675   0.61607   0.00000  Uiso   1.00
Cl288  Cl    0.86483   0.86173   0.50684   0.00000  Uiso   1.00
H289   H     0.13368   0.12647   0.38768   0.00000  Uiso   1.00
H290   H     0.11610   0.19697   0.13873   0.00000  Uiso   1.00
H291   H     0.10132   0.04817   0.03538   0.00000  Uiso   1.00
H292   H     0.17572   0.06247   0.18155   0.00000  Uiso   1.00
H293   H     0.04897   0.11375   0.24582   0.00000  Uiso   1.00
H294   H     0.01276   0.04644   0.08830   0.00000  Uiso   1.00
H295   H     0.11269   0.19349   0.38177   0.00000  Uiso   1.00
H296   H     0.17415   0.07251   0.66635   0.00000  Uiso   1.00
H297   H     0.05554   0.11520   0.75824   0.00000  Uiso   1.00
H298   H     0.12819   0.12925   0.88569   0.00000  Uiso   1.00
H299   H     0.09832   0.04501   0.53247   0.00000  Uiso   1.00
H300   H     0.01095   0.05060   0.59171   0.00000  Uiso   1.00
H301   H     0.21889   0.21654   0.21691   0.00000  Uiso   1.00
H302   H     0.01126   0.38464   0.08888   0.00000  Uiso   1.00
H303   H     0.10759   0.36513   0.40919   0.00000  Uiso   1.00
H304   H     0.18141   0.39447   0.19894   0.00000  Uiso   1.00
H305   H     0.11725   0.31868   0.29908   0.00000  Uiso   1.00
H306   H     0.10957   0.31547   0.03736   0.00000  Uiso   1.00
H307   H     0.12596   0.21234   0.65869   0.00000  Uiso   1.00
H308   H     0.11588   0.36396   0.67572   0.00000  Uiso   1.00
H309   H     0.10941   0.31183   0.77888   0.00000  Uiso   1.00
H310   H     0.09426   0.29567   0.51024   0.00000  Uiso   1.00
H311   H     0.22486   0.21993   0.96419   0.00000  Uiso   1.00
H312   H     0.12274   0.20971   0.89690   0.00000  Uiso   1.00
H313   H     0.00853   0.29577   0.96534   0.00000  Uiso   1.00
H314   H     0.12142   0.53188   0.15208   0.00000  Uiso   1.00
H315   H     0.04830   0.45147   0.24857   0.00000  Uiso   1.00
H316   H     0.24728   0.45951   0.09415   0.00000  Uiso   1.00
H317   H     0.22792   0.55167   0.21907   0.00000  Uiso   1.00
H318   H     0.12021   0.53665   0.40416   0.00000  Uiso   1.00
H319   H     0.05814   0.43331   0.02097   0.00000  Uiso   1.00
H320   H     0.24731   0.55183   0.46844   0.00000  Uiso   1.00
H321   H     0.12216   0.47707   0.52123   0.00000  Uiso   1.00
H322   H     0.11767   0.54002   0.65475   0.00000  Uiso   1.00
H323   H     0.22022   0.54891   0.96449   0.00000  Uiso   1.00
H324   H     0.12973   0.54711   0.91416   0.00000  Uiso   1.00
H325   H     0.11711   0.49048   0.74625   0.00000  Uiso   1.00
H326   H     0.22156   0.46340   0.59504   0.00000  Uiso   1.00
H327   H     0.22308   0.46149   0.83909   0.00000  Uiso   1.00
H328   H     0.16850   0.41433   0.90003   0.00000  Uiso   1.00
H329   H     0.01232   0.62785   0.21907   0.00000  Uiso   1.00
H330   H     0.11071   0.64478   0.28268   0.00000  Uiso   1.00
H331   H     0.04757   0.77957   0.25140   0.00000  Uiso   1.00
H332   H     0.10676   0.64266   0.03413   0.00000  Uiso   1.00
H333   H     0.17703   0.72663   0.18652   0.00000  Uiso   1.00
H334   H     0.23188   0.78997   0.33970   0.00000  Uiso   1.00
H335   H     0.05752   0.76402   0.02426   0.00000  Uiso   1.00
H336   H     0.22552   0.79096   0.09462   0.00000  Uiso   1.00
H337   H     0.13428   0.79622   0.38854   0.00000  Uiso   1.00
H338   H     0.09487   0.62281   0.76105   0.00000  Uiso   1.00
H339   H     0.00689   0.72172   0.59641   0.00000  Uiso   1.00
H340   H     0.17851   0.73094   0.92323   0.00000  Uiso   1.00
H341   H     0.10411   0.63753   0.52420   0.00000  Uiso   1.00
H342   H     0.00753   0.63062   0.71869   0.00000  Uiso   1.00
H343   H     0.05145   0.78054   0.75432   0.00000  Uiso   1.00
H344   H     0.22494   0.79355   0.84267   0.00000  Uiso   1.00
H345   H     0.17951   0.73699   0.67963   0.00000  Uiso   1.00
H346   H     0.09419   0.72213   0.54104   0.00000  Uiso   1.00
H347   H     0.21865   0.79629   0.59628   0.00000  Uiso   1.00
H348   H     0.11300   0.97456   0.03497   0.00000  Uiso   1.00
H349   H     0.12022   0.86686   0.15398   0.00000  Uiso   1.00
H350   H     0.11466   0.97835   0.28613   0.00000  Uiso   1.00
H351   H     0.11954   0.87060   0.40349   0.00000  Uiso   1.00
H352   H     0.23040   0.88662   0.46812   0.00000  Uiso   1.00
H353   H     0.01215   0.96698   0.71456   0.00000  Uiso   1.00
H354   H     0.12148   0.87859   0.66645   0.00000  Uiso   1.00
H355   H     0.10426   0.96430   0.76306   0.00000  Uiso   1.00
H356   H     0.13003   0.88508   0.91211   0.00000  Uiso   1.00
H357   H     0.10636   0.97188   0.52797   0.00000  Uiso   1.00
H358   H     0.42040   0.09654   0.14780   0.00000  Uiso   1.00
H359   H     0.31457   0.08595   0.28737   0.00000  Uiso   1.00
H360   H     0.47357   0.05329   0.09365   0.00000  Uiso   1.00
H361   H     0.35787   0.14612   0.40225   0.00000  Uiso   1.00
H362   H     0.26168   0.12807   0.34050   0.00000  Uiso   1.00
H363   H     0.47192   0.05346   0.34316   0.00000  Uiso   1.00
H364   H     0.31280   0.08487   0.03332   0.00000  Uiso   1.00
H365   H     0.25108   0.12410   0.08874   0.00000  Uiso   1.00
H366   H     0.37129   0.04174   0.52838   0.00000  Uiso   1.00
H367   H     0.25790   0.13358   0.83658   0.00000  Uiso   1.00
H368   H     0.42167   0.11142   0.66165   0.00000  Uiso   1.00
H369   H     0.30353   0.06957   0.76425   0.00000  Uiso   1.00
H370   H     0.41468   0.08879   0.89556   0.00000  Uiso   1.00
H371   H     0.47603   0.05173   0.84100   0.00000  Uiso   1.00
H372   H     0.47648   0.05662   0.59034   0.00000  Uiso   1.00
H373   H     0.25465   0.12852   0.58926   0.00000  Uiso   1.00
H374   H     0.38064   0.29810   0.16253   0.00000  Uiso   1.00
H375   H     0.41928   0.24094   0.28319   0.00000  Uiso   1.00
H376   H     0.30360   0.27006   0.39158   0.00000  Uiso   1.00
H377   H     0.46654   0.29510   0.21633   0.00000  Uiso   1.00
H378   H     0.37170   0.36266   0.25433   0.00000  Uiso   1.00
H379   H     0.47959   0.38558   0.08934   0.00000  Uiso   1.00
H380   H     0.37850   0.36798   0.02529   0.00000  Uiso   1.00
H381   H     0.46522   0.37690   0.34011   0.00000  Uiso   1.00
H382   H     0.34689   0.20973   0.02160   0.00000  Uiso   1.00
H383   H     0.47221   0.29268   0.46655   0.00000  Uiso   1.00
H384   H     0.25805   0.21653   0.45895   0.00000  Uiso   1.00
H385   H     0.36854   0.31177   0.64361   0.00000  Uiso   1.00
H386   H     0.46835   0.38514   0.58839   0.00000  Uiso   1.00
H387   H     0.35086   0.21005   0.77066   0.00000  Uiso   1.00
H388   H     0.37172   0.31402   0.89621   0.00000  Uiso   1.00
H389   H     0.46840   0.29639   0.96009   0.00000  Uiso   1.00
H390   H     0.36955   0.37248   0.52773   0.00000  Uiso   1.00
H391   H     0.35667   0.20446   0.52570   0.00000  Uiso   1.00
H392   H     0.25496   0.22251   0.71128   0.00000  Uiso   1.00
H393   H     0.47281   0.38466   0.83460   0.00000  Uiso   1.00
H394   H     0.46558   0.30159   0.71111   0.00000  Uiso   1.00
H395   H     0.35716   0.47980   0.41339   0.00000  Uiso   1.00
H396   H     0.35280   0.47815   0.15432   0.00000  Uiso   1.00
H397   H     0.36567   0.52126   0.31724   0.00000  Uiso   1.00
H398   H     0.26142   0.45959   0.34376   0.00000  Uiso   1.00
H399   H     0.31973   0.58748   0.01542   0.00000  Uiso   1.00
H400   H     0.35580   0.53550   0.53407   0.00000  Uiso   1.00
H401   H     0.26091   0.55288   0.71820   0.00000  Uiso   1.00
H402   H     0.42860   0.44738   0.67551   0.00000  Uiso   1.00
H403   H     0.35709   0.47821   0.91715   0.00000  Uiso   1.00
H404   H     0.36133   0.53020   0.78330   0.00000  Uiso   1.00
H405   H     0.30253   0.40290   0.74936   0.00000  Uiso   1.00
H406   H     0.47447   0.62577   0.21320   0.00000  Uiso   1.00
H407   H     0.46758   0.71399   0.33659   0.00000  Uiso   1.00
H408   H     0.37803   0.70676   0.14822   0.00000  Uiso   1.00
H409   H     0.36693   0.65248   0.37758   0.00000  Uiso   1.00
H410   H     0.35310   0.79828   0.04079   0.00000  Uiso   1.00
H411   H     0.34999   0.79902   0.28003   0.00000  Uiso   1.00
H412   H     0.40319   0.60626   0.17580   0.00000  Uiso   1.00
H413   H     0.49804   0.71843   0.83762   0.00000  Uiso   1.00
H414   H     0.42612   0.78084   0.68049   0.00000  Uiso   1.00
H415   H     0.47383   0.62468   0.71204   0.00000  Uiso   1.00
H416   H     0.36695   0.64727   0.64130   0.00000  Uiso   1.00
H417   H     0.37090   0.64504   0.88701   0.00000  Uiso   1.00
H418   H     0.30286   0.72530   0.75314   0.00000  Uiso   1.00
H419   H     0.38246   0.71598   0.88702   0.00000  Uiso   1.00
H420   H     0.46629   0.71358   0.59269   0.00000  Uiso   1.00
H421   H     0.47071   0.62769   0.96229   0.00000  Uiso   1.00
H422   H     0.37151   0.69005   0.50003   0.00000  Uiso   1.00
H423   H     0.41507   0.92178   0.27058   0.00000  Uiso   1.00
H424   H     0.35615   0.81715   0.41991   0.00000  Uiso   1.00
H425   H     0.35819   0.86914   0.03089   0.00000  Uiso   1.00
H426   H     0.32091   0.91920   0.42188   0.00000  Uiso   1.00
H427   H     0.37737   0.97190   0.15756   0.00000  Uiso   1.00
H428   H     0.47181   0.96006   0.21825   0.00000  Uiso   1.00
H429   H     0.25484   0.88469   0.21905   0.00000  Uiso   1.00
H430   H     0.48662   0.95808   0.46919   0.00000  Uiso   1.00
H431   H     0.39126   0.95081   0.92617   0.00000  Uiso   1.00
H432   H     0.35400   0.87267   0.77755   0.00000  Uiso   1.00
H433   H     0.35796   0.98532   0.63295   0.00000  Uiso   1.00
H434   H     0.36587   0.86249   0.55037   0.00000  Uiso   1.00
H435   H     0.25183   0.88432   0.97191   0.00000  Uiso   1.00
H436   H     0.26651   0.87806   0.71768   0.00000  Uiso   1.00
H437   H     0.63427   0.13000   0.14535   0.00000  Uiso   1.00
H438   H     0.59704   0.05459   0.29382   0.00000  Uiso   1.00
H439   H     0.59534   0.05324   0.04151   0.00000  Uiso   1.00
H440   H     0.63151   0.13066   0.39682   0.00000  Uiso   1.00
H441   H     0.63375   0.13632   0.90104   0.00000  Uiso   1.00
H442   H     0.64067   0.12005   0.64018   0.00000  Uiso   1.00
H443   H     0.59854   0.05130   0.79639   0.00000  Uiso   1.00
H444   H     0.59797   0.04285   0.53573   0.00000  Uiso   1.00
H445   H     0.58667   0.28816   0.16911   0.00000  Uiso   1.00
H446   H     0.59704   0.30044   0.40677   0.00000  Uiso   1.00
H447   H     0.62714   0.20682   0.27156   0.00000  Uiso   1.00
H448   H     0.59642   0.38538   0.04582   0.00000  Uiso   1.00
H449   H     0.60140   0.37972   0.29133   0.00000  Uiso   1.00
H450   H     0.61847   0.36108   0.43636   0.00000  Uiso   1.00
H451   H     0.63742   0.21668   0.01697   0.00000  Uiso   1.00
H452   H     0.73321   0.21992   0.21291   0.00000  Uiso   1.00
H453   H     0.59904   0.37538   0.78363   0.00000  Uiso   1.00
H454   H     0.59283   0.29831   0.66559   0.00000  Uiso   1.00
H455   H     0.62342   0.21225   0.52239   0.00000  Uiso   1.00
H456   H     0.60154   0.30282   0.91520   0.00000  Uiso   1.00
H457   H     0.71405   0.21451   0.71729   0.00000  Uiso   1.00
H458   H     0.63170   0.21381   0.77270   0.00000  Uiso   1.00
H459   H     0.62918   0.46788   0.14517   0.00000  Uiso   1.00
H460   H     0.63345   0.55159   0.26509   0.00000  Uiso   1.00
H461   H     0.63475   0.54166   0.02217   0.00000  Uiso   1.00
H462   H     0.61036   0.49226   0.49307   0.00000  Uiso   1.00
H463   H     0.72302   0.55235   0.21323   0.00000  Uiso   1.00
H464   H     0.61419   0.52458   0.62540   0.00000  Uiso   1.00
H465   H     0.63311   0.46744   0.64747   0.00000  Uiso   1.00
H466   H     0.63029   0.54086   0.77720   0.00000  Uiso   1.00
H467   H     0.63718   0.45984   0.89288   0.00000  Uiso   1.00
H468   H     0.72285   0.54962   0.96641   0.00000  Uiso   1.00
H469   H     0.72045   0.46286   0.59081   0.00000  Uiso   1.00
H470   H     0.50833   0.62899   0.46321   0.00000  Uiso   1.00
H471   H     0.61422   0.69191   0.42181   0.00000  Uiso   1.00
H472   H     0.58897   0.62048   0.41760   0.00000  Uiso   1.00
H473   H     0.60117   0.71110   0.14089   0.00000  Uiso   1.00
H474   H     0.60033   0.63836   0.15609   0.00000  Uiso   1.00
H475   H     0.51202   0.71739   0.09142   0.00000  Uiso   1.00
H476   H     0.61086   0.69921   0.90108   0.00000  Uiso   1.00
H477   H     0.59751   0.72025   0.63254   0.00000  Uiso   1.00
H478   H     0.60540   0.63640   0.91249   0.00000  Uiso   1.00
H479   H     0.61275   0.65340   0.55181   0.00000  Uiso   1.00
H480   H     0.63579   0.79320   0.78983   0.00000  Uiso   1.00
H481   H     0.61735   0.98280   0.05033   0.00000  Uiso   1.00
H482   H     0.61553   0.86418   0.14301   0.00000  Uiso   1.00
H483   H     0.60936   0.98237   0.29159   0.00000  Uiso   1.00
H484   H     0.61878   0.86404   0.38401   0.00000  Uiso   1.00
H485   H     0.62301   0.80868   0.01364   0.00000  Uiso   1.00
H486   H     0.71945   0.88092   0.20437   0.00000  Uiso   1.00
H487   H     0.62380   0.80471   0.28058   0.00000  Uiso   1.00
H488   H     0.62230   0.87379   0.64929   0.00000  Uiso   1.00
H489   H     0.61121   0.98462   0.79104   0.00000  Uiso   1.00
H490   H     0.61871   0.86171   0.87956   0.00000  Uiso   1.00
H491   H     0.50140   0.96066   0.71477   0.00000  Uiso   1.00
H492   H     0.62048   0.80742   0.51495   0.00000  Uiso   1.00
H493   H     0.60001   0.97044   0.51530   0.00000  Uiso   1.00
H494   H     0.51902   0.96970   0.97028   0.00000  Uiso   1.00
H495   H     0.71945   0.80011   0.83179   0.00000  Uiso   1.00
H496   H     0.75724   0.12756   0.09086   0.00000  Uiso   1.00
H497   H     0.86273   0.15075   0.41920   0.00000  Uiso   1.00
H498   H     0.92944   0.11487   0.18662   0.00000  Uiso   1.00
H499   H     0.80005   0.06192   0.25229   0.00000  Uiso   1.00
H500   H     0.76178   0.12918   0.34164   0.00000  Uiso   1.00
H501   H     0.96549   0.04817   0.33856   0.00000  Uiso   1.00
H502   H     0.86295   0.02784   0.01337   0.00000  Uiso   1.00
H503   H     0.75396   0.12662   0.59115   0.00000  Uiso   1.00
H504   H     0.87066   0.03266   0.76053   0.00000  Uiso   1.00
H505   H     0.85962   0.14983   0.66213   0.00000  Uiso   1.00
H506   H     0.97077   0.05350   0.84084   0.00000  Uiso   1.00
H507   H     0.86174   0.14787   0.92459   0.00000  Uiso   1.00
H508   H     0.75656   0.12830   0.84073   0.00000  Uiso   1.00
H509   H     0.86142   0.19657   0.79338   0.00000  Uiso   1.00
H510   H     0.87014   0.03316   0.52337   0.00000  Uiso   1.00
H511   H     0.87378   0.31137   0.15062   0.00000  Uiso   1.00
H512   H     0.87328   0.31047   0.39716   0.00000  Uiso   1.00
H513   H     0.87436   0.37234   0.28200   0.00000  Uiso   1.00
H514   H     0.75860   0.21688   0.46647   0.00000  Uiso   1.00
H515   H     0.96580   0.29727   0.46724   0.00000  Uiso   1.00
H516   H     0.96554   0.30103   0.21250   0.00000  Uiso   1.00
H517   H     0.87332   0.36840   0.02920   0.00000  Uiso   1.00
H518   H     0.96749   0.37907   0.34103   0.00000  Uiso   1.00
H519   H     0.86168   0.20233   0.03695   0.00000  Uiso   1.00
H520   H     0.85680   0.20212   0.28051   0.00000  Uiso   1.00
H521   H     0.87506   0.31372   0.65506   0.00000  Uiso   1.00
H522   H     0.86672   0.37289   0.52885   0.00000  Uiso   1.00
H523   H     0.86395   0.31921   0.88247   0.00000  Uiso   1.00
H524   H     0.86632   0.35839   0.75842   0.00000  Uiso   1.00
H525   H     0.96953   0.38521   0.58654   0.00000  Uiso   1.00
H526   H     0.85522   0.20755   0.53449   0.00000  Uiso   1.00
H527   H     0.97678   0.29572   0.71138   0.00000  Uiso   1.00
H528   H     0.96448   0.38139   0.83833   0.00000  Uiso   1.00
H529   H     0.75896   0.21878   0.96714   0.00000  Uiso   1.00
H530   H     0.85475   0.47234   0.15454   0.00000  Uiso   1.00
H531   H     0.75307   0.55480   0.46637   0.00000  Uiso   1.00
H532   H     0.86590   0.52453   0.03873   0.00000  Uiso   1.00
H533   H     0.85953   0.47791   0.41073   0.00000  Uiso   1.00
H534   H     0.86135   0.53555   0.28410   0.00000  Uiso   1.00
H535   H     0.75899   0.45938   0.09409   0.00000  Uiso   1.00
H536   H     0.75811   0.46326   0.34380   0.00000  Uiso   1.00
H537   H     0.86045   0.48148   0.91292   0.00000  Uiso   1.00
H538   H     0.76663   0.46360   0.84172   0.00000  Uiso   1.00
H539   H     0.85608   0.48012   0.67097   0.00000  Uiso   1.00
H540   H     0.75373   0.54944   0.71407   0.00000  Uiso   1.00
H541   H     0.92963   0.57155   0.55407   0.00000  Uiso   1.00
H542   H     0.85007   0.55175   0.76682   0.00000  Uiso   1.00
H543   H     0.97862   0.62644   0.46401   0.00000  Uiso   1.00
H544   H     0.92742   0.77390   0.16890   0.00000  Uiso   1.00
H545   H     0.87248   0.64950   0.38875   0.00000  Uiso   1.00
H546   H     0.80386   0.73416   0.25698   0.00000  Uiso   1.00
H547   H     0.87279   0.63624   0.15076   0.00000  Uiso   1.00
H548   H     0.75934   0.79260   0.08321   0.00000  Uiso   1.00
H549   H     0.97229   0.71512   0.09045   0.00000  Uiso   1.00
H550   H     0.96280   0.71282   0.33624   0.00000  Uiso   1.00
H551   H     0.75991   0.79416   0.33226   0.00000  Uiso   1.00
H552   H     0.86974   0.69850   0.00449   0.00000  Uiso   1.00
H553   H     0.92221   0.76777   0.65347   0.00000  Uiso   1.00
H554   H     0.87483   0.70698   0.52631   0.00000  Uiso   1.00
H555   H     0.80216   0.61212   0.62720   0.00000  Uiso   1.00
H556   H     0.87983   0.63645   0.91311   0.00000  Uiso   1.00
H557   H     0.81560   0.76450   0.78798   0.00000  Uiso   1.00
H558   H     0.98560   0.72298   0.84179   0.00000  Uiso   1.00
H559   H     0.96299   0.63026   0.96047   0.00000  Uiso   1.00
H560   H     0.75760   0.79487   0.58764   0.00000  Uiso   1.00
H561   H     0.86739   0.97713   0.13750   0.00000  Uiso   1.00
H562   H     0.87318   0.96624   0.40814   0.00000  Uiso   1.00
H563   H     0.85694   0.86821   0.27263   0.00000  Uiso   1.00
H564   H     0.76461   0.87752   0.45812   0.00000  Uiso   1.00
H565   H     0.86085   0.86246   0.02953   0.00000  Uiso   1.00
H566   H     0.96326   0.96898   0.46685   0.00000  Uiso   1.00
H567   H     0.85681   0.81127   0.39880   0.00000  Uiso   1.00
H568   H     0.96697   0.96456   0.21530   0.00000  Uiso   1.00
H569   H     0.80524   0.94098   0.63949   0.00000  Uiso   1.00
H570   H     0.88563   0.95969   0.91363   0.00000  Uiso   1.00
H571   H     0.85549   0.87838   0.76692   0.00000  Uiso   1.00
H572   H     0.92294   0.91385   0.53308   0.00000  Uiso   1.00
H573   H     0.86077   0.81471   0.90076   0.00000  Uiso   1.00
H574   H     0.98749   0.95480   0.96532   0.00000  Uiso   1.00
H575   H     0.76415   0.88261   0.70514   0.00000  Uiso   1.00
H576   H     0.75939   0.88106   0.95777   0.00000  Uiso   1.00
C577   C     0.11561   0.05194   0.19441   0.00000  Uiso   1.00
C578   C     0.14922   0.07490   0.19492   0.00000  Uiso   1.00
C579   C     0.04370   0.04401   0.21507   0.00000  Uiso   1.00
C580   C     0.07950   0.06679   0.21285   0.00000  Uiso   1.00
C581   C     0.18258   0.13512   0.21561   0.00000  Uiso   1.00
C582   C     0.14791   0.11284   0.21225   0.00000  Uiso   1.00
C583   C     0.07777   0.10397   0.23043   0.00000  Uiso   1.00
C584   C     0.11055   0.12815   0.22937   0.00000  Uiso   1.00
C585   C     0.08767   0.09659   0.42059   0.00000  Uiso   1.00
C586   C     0.12498   0.11149   0.41865   0.00000  Uiso   1.00
C587   C     0.04117   0.04974   0.45969   0.00000  Uiso   1.00
C588   C     0.07793   0.07127   0.46144   0.00000  Uiso   1.00
C589   C     0.18633   0.12989   0.46506   0.00000  Uiso   1.00
C590   C     0.15111   0.10873   0.46185   0.00000  Uiso   1.00
C591   C     0.10635   0.06671   0.00449   0.00000  Uiso   1.00
C592   C     0.14341   0.08542   0.00072   0.00000  Uiso   1.00
C593   C     0.11515   0.05982   0.68453   0.00000  Uiso   1.00
C594   C     0.14861   0.08224   0.68693   0.00000  Uiso   1.00
C595   C     0.04570   0.04811   0.71083   0.00000  Uiso   1.00
C596   C     0.08095   0.07214   0.71141   0.00000  Uiso   1.00
C597   C     0.18462   0.13551   0.71412   0.00000  Uiso   1.00
C598   C     0.14863   0.11555   0.71308   0.00000  Uiso   1.00
C599   C     0.08129   0.10551   0.73971   0.00000  Uiso   1.00
C600   C     0.11326   0.12865   0.73686   0.00000  Uiso   1.00
C601   C     0.08457   0.09568   0.92399   0.00000  Uiso   1.00
C602   C     0.12144   0.11270   0.91952   0.00000  Uiso   1.00
C603   C     0.04516   0.04501   0.96383   0.00000  Uiso   1.00
C604   C     0.07788   0.07240   0.96693   0.00000  Uiso   1.00
C605   C     0.18436   0.13239   0.96229   0.00000  Uiso   1.00
C606   C     0.14884   0.11073   0.96097   0.00000  Uiso   1.00
C607   C     0.14046   0.08504   0.50298   0.00000  Uiso   1.00
C608   C     0.10614   0.06440   0.50113   0.00000  Uiso   1.00
C609   C     0.14816   0.27006   0.06204   0.00000  Uiso   1.00
C610   C     0.11148   0.29147   0.06167   0.00000  Uiso   1.00
C611   C     0.18398   0.21251   0.09177   0.00000  Uiso   1.00
C612   C     0.15040   0.23723   0.09130   0.00000  Uiso   1.00
C613   C     0.04145   0.29904   0.08455   0.00000  Uiso   1.00
C614   C     0.07763   0.27764   0.08852   0.00000  Uiso   1.00
C615   C     0.11607   0.22443   0.11607   0.00000  Uiso   1.00
C616   C     0.07994   0.24445   0.11466   0.00000  Uiso   1.00
C617   C     0.04030   0.38000   0.21369   0.00000  Uiso   1.00
C618   C     0.15046   0.26660   0.31173   0.00000  Uiso   1.00
C619   C     0.11576   0.28905   0.31477   0.00000  Uiso   1.00
C620   C     0.15068   0.23461   0.33950   0.00000  Uiso   1.00
C621   C     0.04325   0.29895   0.33894   0.00000  Uiso   1.00
C622   C     0.07908   0.27595   0.33972   0.00000  Uiso   1.00
C623   C     0.11431   0.22036   0.36462   0.00000  Uiso   1.00
C624   C     0.07969   0.24221   0.36724   0.00000  Uiso   1.00
C625   C     0.04236   0.38053   0.46127   0.00000  Uiso   1.00
C626   C     0.18601   0.21282   0.34154   0.00000  Uiso   1.00
C627   C     0.11556   0.38567   0.20385   0.00000  Uiso   1.00
C628   C     0.11131   0.38660   0.43700   0.00000  Uiso   1.00
C629   C     0.07968   0.39968   0.46490   0.00000  Uiso   1.00
C630   C     0.11357   0.39218   0.68823   0.00000  Uiso   1.00
C631   C     0.13911   0.26092   0.54415   0.00000  Uiso   1.00
C632   C     0.10135   0.27843   0.54297   0.00000  Uiso   1.00
C633   C     0.18692   0.21729   0.58760   0.00000  Uiso   1.00
C634   C     0.14842   0.23795   0.58496   0.00000  Uiso   1.00
C635   C     0.04214   0.30227   0.58709   0.00000  Uiso   1.00
C636   C     0.07404   0.27434   0.58448   0.00000  Uiso   1.00
C637   C     0.12047   0.23319   0.62661   0.00000  Uiso   1.00
C638   C     0.08290   0.24774   0.62435   0.00000  Uiso   1.00
C639   C     0.04220   0.38585   0.71089   0.00000  Uiso   1.00
C640   C     0.14474   0.26737   0.79989   0.00000  Uiso   1.00
C641   C     0.11067   0.28701   0.80290   0.00000  Uiso   1.00
C642   C     0.18847   0.21632   0.84018   0.00000  Uiso   1.00
C643   C     0.15042   0.23864   0.83444   0.00000  Uiso   1.00
C644   C     0.04352   0.30178   0.83566   0.00000  Uiso   1.00
C645   C     0.07826   0.27797   0.83492   0.00000  Uiso   1.00
C646   C     0.11862   0.23115   0.86970   0.00000  Uiso   1.00
C647   C     0.08269   0.24898   0.86940   0.00000  Uiso   1.00
C648   C     0.04581   0.37700   0.95875   0.00000  Uiso   1.00
C649   C     0.11232   0.39801   0.92296   0.00000  Uiso   1.00
C650   C     0.14675   0.40750   0.43443   0.00000  Uiso   1.00
C651   C     0.15048   0.43955   0.46455   0.00000  Uiso   1.00
C652   C     0.12141   0.56080   0.37691   0.00000  Uiso   1.00
C653   C     0.18727   0.54848   0.09396   0.00000  Uiso   1.00
C654   C     0.14883   0.56878   0.09048   0.00000  Uiso   1.00
C655   C     0.11722   0.55545   0.12283   0.00000  Uiso   1.00
C656   C     0.18651   0.46667   0.22195   0.00000  Uiso   1.00
C657   C     0.14935   0.44384   0.22193   0.00000  Uiso   1.00
C658   C     0.11335   0.45816   0.23922   0.00000  Uiso   1.00
C659   C     0.18791   0.54384   0.34376   0.00000  Uiso   1.00
C660   C     0.15362   0.57001   0.34289   0.00000  Uiso   1.00
C661   C     0.14445   0.59800   0.05609   0.00000  Uiso   1.00
C662   C     0.08446   0.58073   0.37544   0.00000  Uiso   1.00
C663   C     0.18806   0.46082   0.47004   0.00000  Uiso   1.00
C664   C     0.07835   0.43837   0.23599   0.00000  Uiso   1.00
C665   C     0.08178   0.57478   0.12322   0.00000  Uiso   1.00
C666   C     0.15111   0.40677   0.20675   0.00000  Uiso   1.00
C667   C     0.07782   0.40171   0.21805   0.00000  Uiso   1.00
C668   C     0.11841   0.45176   0.49622   0.00000  Uiso   1.00
C669   C     0.07907   0.40723   0.71160   0.00000  Uiso   1.00
C670   C     0.11803   0.46106   0.73331   0.00000  Uiso   1.00
C671   C     0.08022   0.44299   0.73154   0.00000  Uiso   1.00
C672   C     0.12112   0.56587   0.88169   0.00000  Uiso   1.00
C673   C     0.18145   0.54189   0.59420   0.00000  Uiso   1.00
C674   C     0.14535   0.56545   0.58992   0.00000  Uiso   1.00
C675   C     0.11452   0.55948   0.62599   0.00000  Uiso   1.00
C676   C     0.08070   0.58184   0.62550   0.00000  Uiso   1.00
C677   C     0.18952   0.46672   0.72096   0.00000  Uiso   1.00
C678   C     0.15297   0.44589   0.71561   0.00000  Uiso   1.00
C679   C     0.08364   0.58406   0.88221   0.00000  Uiso   1.00
C680   C     0.18716   0.54570   0.84469   0.00000  Uiso   1.00
C681   C     0.14899   0.56658   0.84110   0.00000  Uiso   1.00
C682   C     0.18662   0.46653   0.96772   0.00000  Uiso   1.00
C683   C     0.15036   0.44587   0.96639   0.00000  Uiso   1.00
C684   C     0.14662   0.41976   0.92720   0.00000  Uiso   1.00
C685   C     0.15103   0.40992   0.69423   0.00000  Uiso   1.00
C686   C     0.13838   0.58779   0.79785   0.00000  Uiso   1.00
C687   C     0.08185   0.40069   0.96011   0.00000  Uiso   1.00
C688   C     0.13945   0.59376   0.55293   0.00000  Uiso   1.00
C689   C     0.08479   0.42666   0.99888   0.00000  Uiso   1.00
C690   C     0.11698   0.45173   0.99891   0.00000  Uiso   1.00
C691   C     0.08350   0.42994   0.50009   0.00000  Uiso   1.00
C692   C     0.07677   0.60411   0.08852   0.00000  Uiso   1.00
C693   C     0.14943   0.78069   0.46866   0.00000  Uiso   1.00
C694   C     0.08117   0.61227   0.34253   0.00000  Uiso   1.00
C695   C     0.11087   0.78916   0.23905   0.00000  Uiso   1.00
C696   C     0.03936   0.62601   0.08624   0.00000  Uiso   1.00
C697   C     0.12552   0.78092   0.42319   0.00000  Uiso   1.00
C698   C     0.11123   0.72074   0.19012   0.00000  Uiso   1.00
C699   C     0.14770   0.74068   0.19349   0.00000  Uiso   1.00
C700   C     0.03762   0.71216   0.21000   0.00000  Uiso   1.00
C701   C     0.07536   0.73554   0.21191   0.00000  Uiso   1.00
C702   C     0.11383   0.62270   0.31150   0.00000  Uiso   1.00
C703   C     0.14849   0.77426   0.21939   0.00000  Uiso   1.00
C704   C     0.04497   0.63673   0.33867   0.00000  Uiso   1.00
C705   C     0.07567   0.76834   0.23673   0.00000  Uiso   1.00
C706   C     0.08836   0.76349   0.42231   0.00000  Uiso   1.00
C707   C     0.04137   0.71915   0.46316   0.00000  Uiso   1.00
C708   C     0.07616   0.74165   0.46502   0.00000  Uiso   1.00
C709   C     0.10814   0.61691   0.05670   0.00000  Uiso   1.00
C710   C     0.11536   0.78347   0.00128   0.00000  Uiso   1.00
C711   C     0.14866   0.60032   0.30710   0.00000  Uiso   1.00
C712   C     0.18656   0.79696   0.22112   0.00000  Uiso   1.00
C713   C     0.08272   0.75863   0.00088   0.00000  Uiso   1.00
C714   C     0.10024   0.74077   0.50799   0.00000  Uiso   1.00
C715   C     0.07491   0.60922   0.58889   0.00000  Uiso   1.00
C716   C     0.18315   0.79750   0.97209   0.00000  Uiso   1.00
C717   C     0.10057   0.60472   0.79568   0.00000  Uiso   1.00
C718   C     0.10531   0.61495   0.55256   0.00000  Uiso   1.00
C719   C     0.04004   0.63298   0.58981   0.00000  Uiso   1.00
C720   C     0.11669   0.72351   0.69383   0.00000  Uiso   1.00
C721   C     0.15155   0.74599   0.69644   0.00000  Uiso   1.00
C722   C     0.04568   0.71356   0.71438   0.00000  Uiso   1.00
C723   C     0.08075   0.73647   0.71431   0.00000  Uiso   1.00
C724   C     0.14990   0.78082   0.72477   0.00000  Uiso   1.00
C725   C     0.04125   0.63184   0.83698   0.00000  Uiso   1.00
C726   C     0.07934   0.77157   0.73896   0.00000  Uiso   1.00
C727   C     0.11238   0.79494   0.74157   0.00000  Uiso   1.00
C728   C     0.11921   0.71621   0.94323   0.00000  Uiso   1.00
C729   C     0.15132   0.74009   0.94465   0.00000  Uiso   1.00
C730   C     0.04635   0.70550   0.96477   0.00000  Uiso   1.00
C731   C     0.08351   0.72747   0.96815   0.00000  Uiso   1.00
C732   C     0.15004   0.77365   0.97181   0.00000  Uiso   1.00
C733   C     0.07442   0.60531   0.83992   0.00000  Uiso   1.00
C734   C     0.13666   0.76134   0.51154   0.00000  Uiso   1.00
C735   C     0.14940   0.93180   0.06687   0.00000  Uiso   1.00
C736   C     0.11286   0.95062   0.06220   0.00000  Uiso   1.00
C737   C     0.18635   0.87662   0.09911   0.00000  Uiso   1.00
C738   C     0.15202   0.90115   0.10116   0.00000  Uiso   1.00
C739   C     0.04315   0.96430   0.09037   0.00000  Uiso   1.00
C740   C     0.07971   0.94130   0.09439   0.00000  Uiso   1.00
C741   C     0.11875   0.88900   0.12802   0.00000  Uiso   1.00
C742   C     0.08249   0.91056   0.12914   0.00000  Uiso   1.00
C743   C     0.14958   0.93710   0.31617   0.00000  Uiso   1.00
C744   C     0.11409   0.95693   0.31452   0.00000  Uiso   1.00
C745   C     0.18782   0.88176   0.34675   0.00000  Uiso   1.00
C746   C     0.15199   0.90461   0.34482   0.00000  Uiso   1.00
C747   C     0.04424   0.96767   0.34042   0.00000  Uiso   1.00
C748   C     0.08120   0.94704   0.34444   0.00000  Uiso   1.00
C749   C     0.11988   0.89467   0.37712   0.00000  Uiso   1.00
C750   C     0.08451   0.91508   0.37620   0.00000  Uiso   1.00
C751   C     0.18591   0.80113   0.47018   0.00000  Uiso   1.00
C752   C     0.14769   0.93164   0.55891   0.00000  Uiso   1.00
C753   C     0.10971   0.95030   0.55810   0.00000  Uiso   1.00
C754   C     0.18884   0.88089   0.59723   0.00000  Uiso   1.00
C755   C     0.15163   0.90359   0.59561   0.00000  Uiso   1.00
C756   C     0.04003   0.96434   0.58625   0.00000  Uiso   1.00
C757   C     0.07776   0.94227   0.59052   0.00000  Uiso   1.00
C758   C     0.11978   0.89625   0.63358   0.00000  Uiso   1.00
C759   C     0.08374   0.91574   0.63018   0.00000  Uiso   1.00
C760   C     0.14432   0.92621   0.79842   0.00000  Uiso   1.00
C761   C     0.10928   0.94821   0.79601   0.00000  Uiso   1.00
C762   C     0.18639   0.87824   0.84344   0.00000  Uiso   1.00
C763   C     0.15214   0.90231   0.84106   0.00000  Uiso   1.00
C764   C     0.04465   0.96873   0.83544   0.00000  Uiso   1.00
C765   C     0.07955   0.94378   0.83434   0.00000  Uiso   1.00
C766   C     0.12362   0.90332   0.88114   0.00000  Uiso   1.00
C767   C     0.08771   0.91922   0.87830   0.00000  Uiso   1.00
C768   C     0.18507   0.80205   0.72362   0.00000  Uiso   1.00
C769   C     0.36032   0.12184   0.42737   0.00000  Uiso   1.00
C770   C     0.39742   0.10422   0.43146   0.00000  Uiso   1.00
C771   C     0.35860   0.11473   0.17150   0.00000  Uiso   1.00
C772   C     0.39456   0.09412   0.17597   0.00000  Uiso   1.00
C773   C     0.28936   0.12955   0.20709   0.00000  Uiso   1.00
C774   C     0.32823   0.11025   0.21073   0.00000  Uiso   1.00
C775   C     0.43713   0.04834   0.22123   0.00000  Uiso   1.00
C776   C     0.40073   0.07189   0.22081   0.00000  Uiso   1.00
C777   C     0.29261   0.13416   0.45936   0.00000  Uiso   1.00
C778   C     0.32929   0.11254   0.46182   0.00000  Uiso   1.00
C779   C     0.43708   0.05236   0.46967   0.00000  Uiso   1.00
C780   C     0.40111   0.07438   0.46851   0.00000  Uiso   1.00
C781   C     0.33706   0.08930   0.25562   0.00000  Uiso   1.00
C782   C     0.37264   0.06972   0.26016   0.00000  Uiso   1.00
C783   C     0.33133   0.08190   0.49593   0.00000  Uiso   1.00
C784   C     0.36806   0.06435   0.49950   0.00000  Uiso   1.00
C785   C     0.37222   0.07006   0.01051   0.00000  Uiso   1.00
C786   C     0.33589   0.08656   0.00383   0.00000  Uiso   1.00
C787   C     0.35869   0.10943   0.92047   0.00000  Uiso   1.00
C788   C     0.36304   0.12305   0.68526   0.00000  Uiso   1.00
C789   C     0.39863   0.10338   0.68810   0.00000  Uiso   1.00
C790   C     0.29067   0.13284   0.70836   0.00000  Uiso   1.00
C791   C     0.32748   0.11042   0.71010   0.00000  Uiso   1.00
C792   C     0.43399   0.04661   0.72017   0.00000  Uiso   1.00
C793   C     0.39829   0.06994   0.71828   0.00000  Uiso   1.00
C794   C     0.29117   0.13232   0.96107   0.00000  Uiso   1.00
C795   C     0.32967   0.10810   0.95971   0.00000  Uiso   1.00
C796   C     0.43534   0.04451   0.97099   0.00000  Uiso   1.00
C797   C     0.40103   0.06911   0.97085   0.00000  Uiso   1.00
C798   C     0.32967   0.07999   0.74501   0.00000  Uiso   1.00
C799   C     0.36491   0.06080   0.74799   0.00000  Uiso   1.00
C800   C     0.39361   0.08996   0.92654   0.00000  Uiso   1.00
C801   C     0.28921   0.21017   0.33063   0.00000  Uiso   1.00
C802   C     0.28951   0.21499   0.08906   0.00000  Uiso   1.00
C803   C     0.37314   0.27967   0.13051   0.00000  Uiso   1.00
C804   C     0.33479   0.26264   0.12911   0.00000  Uiso   1.00
C805   C     0.39186   0.24854   0.05164   0.00000  Uiso   1.00
C806   C     0.35377   0.23116   0.04947   0.00000  Uiso   1.00
C807   C     0.43495   0.29861   0.09167   0.00000  Uiso   1.00
C808   C     0.40077   0.27264   0.09215   0.00000  Uiso   1.00
C809   C     0.32516   0.23867   0.08971   0.00000  Uiso   1.00
C810   C     0.43703   0.38003   0.21396   0.00000  Uiso   1.00
C811   C     0.39257   0.25066   0.30323   0.00000  Uiso   1.00
C812   C     0.35884   0.22644   0.30192   0.00000  Uiso   1.00
C813   C     0.36258   0.28714   0.36848   0.00000  Uiso   1.00
C814   C     0.32818   0.26355   0.36660   0.00000  Uiso   1.00
C815   C     0.43263   0.30131   0.34111   0.00000  Uiso   1.00
C816   C     0.39491   0.28060   0.33674   0.00000  Uiso   1.00
C817   C     0.32620   0.23446   0.33176   0.00000  Uiso   1.00
C818   C     0.43724   0.38133   0.46719   0.00000  Uiso   1.00
C819   C     0.36659   0.38891   0.23448   0.00000  Uiso   1.00
C820   C     0.37138   0.39250   0.00306   0.00000  Uiso   1.00
C821   C     0.36987   0.39292   0.49902   0.00000  Uiso   1.00
C822   C     0.36711   0.28945   0.61544   0.00000  Uiso   1.00
C823   C     0.32952   0.27344   0.60769   0.00000  Uiso   1.00
C824   C     0.39682   0.24865   0.55217   0.00000  Uiso   1.00
C825   C     0.35921   0.23035   0.54886   0.00000  Uiso   1.00
C826   C     0.43601   0.30111   0.59205   0.00000  Uiso   1.00
C827   C     0.40093   0.27826   0.58814   0.00000  Uiso   1.00
C828   C     0.29124   0.21615   0.58098   0.00000  Uiso   1.00
C829   C     0.32549   0.24106   0.57953   0.00000  Uiso   1.00
C830   C     0.43551   0.38035   0.71656   0.00000  Uiso   1.00
C831   C     0.36860   0.29059   0.86785   0.00000  Uiso   1.00
C832   C     0.33288   0.26923   0.86848   0.00000  Uiso   1.00
C833   C     0.39294   0.24958   0.79937   0.00000  Uiso   1.00
C834   C     0.35471   0.23350   0.79445   0.00000  Uiso   1.00
C835   C     0.43758   0.29911   0.84160   0.00000  Uiso   1.00
C836   C     0.39983   0.27834   0.83673   0.00000  Uiso   1.00
C837   C     0.29052   0.21819   0.83317   0.00000  Uiso   1.00
C838   C     0.32575   0.24145   0.83298   0.00000  Uiso   1.00
C839   C     0.44024   0.38170   0.96840   0.00000  Uiso   1.00
C840   C     0.36297   0.39328   0.73794   0.00000  Uiso   1.00
C841   C     0.33013   0.40715   0.23662   0.00000  Uiso   1.00
C842   C     0.40022   0.57009   0.32794   0.00000  Uiso   1.00
C843   C     0.33062   0.56745   0.34281   0.00000  Uiso   1.00
C844   C     0.36066   0.45439   0.43318   0.00000  Uiso   1.00
C845   C     0.39433   0.43457   0.17932   0.00000  Uiso   1.00
C846   C     0.28888   0.46284   0.20985   0.00000  Uiso   1.00
C847   C     0.32477   0.43959   0.20848   0.00000  Uiso   1.00
C848   C     0.35338   0.57392   0.14094   0.00000  Uiso   1.00
C849   C     0.29398   0.54704   0.09094   0.00000  Uiso   1.00
C850   C     0.33011   0.57032   0.09568   0.00000  Uiso   1.00
C851   C     0.34136   0.58729   0.04978   0.00000  Uiso   1.00
C852   C     0.39709   0.43472   0.43572   0.00000  Uiso   1.00
C853   C     0.29279   0.46650   0.46492   0.00000  Uiso   1.00
C854   C     0.32830   0.44171   0.46497   0.00000  Uiso   1.00
C855   C     0.35672   0.45191   0.17641   0.00000  Uiso   1.00
C856   C     0.36557   0.54948   0.33079   0.00000  Uiso   1.00
C857   C     0.29329   0.54515   0.33870   0.00000  Uiso   1.00
C858   C     0.40179   0.40454   0.46669   0.00000  Uiso   1.00
C859   C     0.33516   0.41201   0.00673   0.00000  Uiso   1.00
C860   C     0.39901   0.40281   0.20902   0.00000  Uiso   1.00
C861   C     0.38620   0.59884   0.14033   0.00000  Uiso   1.00
C862   C     0.35746   0.55908   0.55658   0.00000  Uiso   1.00
C863   C     0.40056   0.57134   0.81274   0.00000  Uiso   1.00
C864   C     0.36080   0.45318   0.94022   0.00000  Uiso   1.00
C865   C     0.33084   0.56699   0.84060   0.00000  Uiso   1.00
C866   C     0.29294   0.54603   0.83841   0.00000  Uiso   1.00
C867   C     0.36779   0.46215   0.69331   0.00000  Uiso   1.00
C868   C     0.39192   0.58000   0.55507   0.00000  Uiso   1.00
C869   C     0.29570   0.47199   0.71459   0.00000  Uiso   1.00
C870   C     0.33109   0.44976   0.71546   0.00000  Uiso   1.00
C871   C     0.40027   0.43916   0.69214   0.00000  Uiso   1.00
C872   C     0.28869   0.54947   0.58552   0.00000  Uiso   1.00
C873   C     0.32511   0.57138   0.58527   0.00000  Uiso   1.00
C874   C     0.39889   0.40371   0.71482   0.00000  Uiso   1.00
C875   C     0.36385   0.55196   0.81168   0.00000  Uiso   1.00
C876   C     0.29298   0.46497   0.96796   0.00000  Uiso   1.00
C877   C     0.32834   0.44089   0.97072   0.00000  Uiso   1.00
C878   C     0.39542   0.43339   0.93586   0.00000  Uiso   1.00
C879   C     0.32844   0.41334   0.73169   0.00000  Uiso   1.00
C880   C     0.40157   0.40295   0.96822   0.00000  Uiso   1.00
C881   C     0.33478   0.59951   0.86813   0.00000  Uiso   1.00
C882   C     0.33368   0.41318   0.50026   0.00000  Uiso   1.00
C883   C     0.29196   0.79452   0.21677   0.00000  Uiso   1.00
C884   C     0.40043   0.61289   0.09263   0.00000  Uiso   1.00
C885   C     0.37768   0.60669   0.04679   0.00000  Uiso   1.00
C886   C     0.39755   0.77027   0.43791   0.00000  Uiso   1.00
C887   C     0.43658   0.63253   0.09280   0.00000  Uiso   1.00
C888   C     0.33455   0.74330   0.17626   0.00000  Uiso   1.00
C889   C     0.37156   0.72667   0.17511   0.00000  Uiso   1.00
C890   C     0.32651   0.76923   0.21780   0.00000  Uiso   1.00
C891   C     0.43645   0.70883   0.21716   0.00000  Uiso   1.00
C892   C     0.40122   0.73200   0.21342   0.00000  Uiso   1.00
C893   C     0.35767   0.77874   0.01044   0.00000  Uiso   1.00
C894   C     0.39956   0.60763   0.34111   0.00000  Uiso   1.00
C895   C     0.39551   0.76234   0.00474   0.00000  Uiso   1.00
C896   C     0.43706   0.62987   0.34015   0.00000  Uiso   1.00
C897   C     0.33171   0.73524   0.48703   0.00000  Uiso   1.00
C898   C     0.33015   0.60422   0.36105   0.00000  Uiso   1.00
C899   C     0.32756   0.77199   0.46732   0.00000  Uiso   1.00
C900   C     0.43772   0.71432   0.46708   0.00000  Uiso   1.00
C901   C     0.40092   0.73544   0.46095   0.00000  Uiso   1.00
C902   C     0.35772   0.77812   0.25230   0.00000  Uiso   1.00
C903   C     0.39355   0.75962   0.25228   0.00000  Uiso   1.00
C904   C     0.35984   0.78854   0.44076   0.00000  Uiso   1.00
C905   C     0.29088   0.79277   0.46571   0.00000  Uiso   1.00
C906   C     0.36798   0.71807   0.48424   0.00000  Uiso   1.00
C907   C     0.36448   0.62489   0.36101   0.00000  Uiso   1.00
C908   C     0.34127   0.75412   0.92453   0.00000  Uiso   1.00
C909   C     0.36850   0.79180   0.70135   0.00000  Uiso   1.00
C910   C     0.39685   0.60998   0.58866   0.00000  Uiso   1.00
C911   C     0.43525   0.62934   0.59064   0.00000  Uiso   1.00
C912   C     0.40083   0.76903   0.69720   0.00000  Uiso   1.00
C913   C     0.33071   0.77720   0.71858   0.00000  Uiso   1.00
C914   C     0.43550   0.70825   0.71710   0.00000  Uiso   1.00
C915   C     0.39927   0.73159   0.71478   0.00000  Uiso   1.00
C916   C     0.43939   0.62848   0.83985   0.00000  Uiso   1.00
C917   C     0.37562   0.73453   0.92198   0.00000  Uiso   1.00
C918   C     0.33077   0.77533   0.96765   0.00000  Uiso   1.00
C919   C     0.43784   0.71319   0.96680   0.00000  Uiso   1.00
C920   C     0.40248   0.73829   0.96416   0.00000  Uiso   1.00
C921   C     0.32870   0.73894   0.73641   0.00000  Uiso   1.00
C922   C     0.36298   0.71598   0.73103   0.00000  Uiso   1.00
C923   C     0.36437   0.62112   0.61834   0.00000  Uiso   1.00
C924   C     0.36989   0.61952   0.86606   0.00000  Uiso   1.00
C925   C     0.40339   0.60587   0.83858   0.00000  Uiso   1.00
C926   C     0.29386   0.79891   0.71398   0.00000  Uiso   1.00
C927   C     0.29289   0.79534   0.96865   0.00000  Uiso   1.00
C928   C     0.32738   0.60347   0.61592   0.00000  Uiso   1.00
C929   C     0.37318   0.95112   0.12588   0.00000  Uiso   1.00
C930   C     0.33547   0.93321   0.12287   0.00000  Uiso   1.00
C931   C     0.39691   0.91345   0.05317   0.00000  Uiso   1.00
C932   C     0.36147   0.89334   0.05411   0.00000  Uiso   1.00
C933   C     0.44036   0.96413   0.09254   0.00000  Uiso   1.00
C934   C     0.40269   0.94351   0.08901   0.00000  Uiso   1.00
C935   C     0.29282   0.88003   0.09168   0.00000  Uiso   1.00
C936   C     0.32964   0.90348   0.08773   0.00000  Uiso   1.00
C937   C     0.39316   0.92507   0.30220   0.00000  Uiso   1.00
C938   C     0.35890   0.90210   0.30135   0.00000  Uiso   1.00
C939   C     0.37665   0.94085   0.39076   0.00000  Uiso   1.00
C940   C     0.33980   0.92212   0.38665   0.00000  Uiso   1.00
C941   C     0.43754   0.96741   0.34801   0.00000  Uiso   1.00
C942   C     0.40151   0.94414   0.34709   0.00000  Uiso   1.00
C943   C     0.29427   0.87912   0.34087   0.00000  Uiso   1.00
C944   C     0.33073   0.90399   0.34197   0.00000  Uiso   1.00
C945   C     0.36180   0.95858   0.61613   0.00000  Uiso   1.00
C946   C     0.32757   0.93444   0.61718   0.00000  Uiso   1.00
C947   C     0.39992   0.90950   0.57353   0.00000  Uiso   1.00
C948   C     0.36498   0.88757   0.57147   0.00000  Uiso   1.00
C949   C     0.43262   0.97103   0.59554   0.00000  Uiso   1.00
C950   C     0.39915   0.94557   0.59676   0.00000  Uiso   1.00
C951   C     0.29339   0.87655   0.58879   0.00000  Uiso   1.00
C952   C     0.32935   0.89952   0.59250   0.00000  Uiso   1.00
C953   C     0.38269   0.93339   0.89317   0.00000  Uiso   1.00
C954   C     0.34517   0.91764   0.89148   0.00000  Uiso   1.00
C955   C     0.39847   0.90918   0.80716   0.00000  Uiso   1.00
C956   C     0.36110   0.89191   0.80719   0.00000  Uiso   1.00
C957   C     0.44118   0.95955   0.84795   0.00000  Uiso   1.00
C958   C     0.40968   0.93212   0.84937   0.00000  Uiso   1.00
C959   C     0.29500   0.87548   0.84585   0.00000  Uiso   1.00
C960   C     0.33434   0.89511   0.84926   0.00000  Uiso   1.00
C961   C     0.62681   0.11022   0.42577   0.00000  Uiso   1.00
C962   C     0.59191   0.09032   0.17443   0.00000  Uiso   1.00
C963   C     0.62957   0.10833   0.17340   0.00000  Uiso   1.00
C964   C     0.54422   0.04708   0.21761   0.00000  Uiso   1.00
C965   C     0.58025   0.07022   0.21933   0.00000  Uiso   1.00
C966   C     0.69128   0.12921   0.21827   0.00000  Uiso   1.00
C967   C     0.65571   0.10630   0.21583   0.00000  Uiso   1.00
C968   C     0.60535   0.06938   0.26162   0.00000  Uiso   1.00
C969   C     0.64287   0.08549   0.25925   0.00000  Uiso   1.00
C970   C     0.59120   0.09095   0.42524   0.00000  Uiso   1.00
C971   C     0.54225   0.04890   0.46499   0.00000  Uiso   1.00
C972   C     0.58015   0.06791   0.46648   0.00000  Uiso   1.00
C973   C     0.68874   0.13057   0.47244   0.00000  Uiso   1.00
C974   C     0.65287   0.10733   0.46919   0.00000  Uiso   1.00
C975   C     0.63939   0.08730   0.01041   0.00000  Uiso   1.00
C976   C     0.60183   0.07096   0.01029   0.00000  Uiso   1.00
C977   C     0.59165   0.09104   0.67653   0.00000  Uiso   1.00
C978   C     0.63081   0.10749   0.67443   0.00000  Uiso   1.00
C979   C     0.54446   0.04573   0.71894   0.00000  Uiso   1.00
C980   C     0.58104   0.06905   0.71959   0.00000  Uiso   1.00
C981   C     0.69005   0.12957   0.72055   0.00000  Uiso   1.00
C982   C     0.65699   0.10474   0.71794   0.00000  Uiso   1.00
C983   C     0.60708   0.06690   0.76185   0.00000  Uiso   1.00
C984   C     0.64382   0.08389   0.76244   0.00000  Uiso   1.00
C985   C     0.59195   0.09332   0.92253   0.00000  Uiso   1.00
C986   C     0.62780   0.11331   0.92608   0.00000  Uiso   1.00
C987   C     0.54124   0.05121   0.96579   0.00000  Uiso   1.00
C988   C     0.57744   0.07331   0.96581   0.00000  Uiso   1.00
C989   C     0.68732   0.13219   0.96948   0.00000  Uiso   1.00
C990   C     0.65267   0.10971   0.96777   0.00000  Uiso   1.00
C991   C     0.60553   0.06314   0.50900   0.00000  Uiso   1.00
C992   C     0.64250   0.08228   0.50896   0.00000  Uiso   1.00
C993   C     0.68721   0.21270   0.34117   0.00000  Uiso   1.00
C994   C     0.63662   0.25767   0.13647   0.00000  Uiso   1.00
C995   C     0.59848   0.27323   0.13445   0.00000  Uiso   1.00
C996   C     0.68922   0.21435   0.09556   0.00000  Uiso   1.00
C997   C     0.65040   0.23411   0.09439   0.00000  Uiso   1.00
C998   C     0.53877   0.29241   0.08525   0.00000  Uiso   1.00
C999   C     0.57462   0.26952   0.08898   0.00000  Uiso   1.00
C1000  C     0.62677   0.23210   0.05122   0.00000  Uiso   1.00
C1001  C     0.58923   0.24795   0.04893   0.00000  Uiso   1.00
C1002  C     0.54560   0.37580   0.21361   0.00000  Uiso   1.00
C1003  C     0.63872   0.25933   0.38065   0.00000  Uiso   1.00
C1004  C     0.60374   0.27864   0.37841   0.00000  Uiso   1.00
C1005  C     0.64930   0.23479   0.33953   0.00000  Uiso   1.00
C1006  C     0.54017   0.29533   0.33701   0.00000  Uiso   1.00
C1007  C     0.57686   0.27164   0.33968   0.00000  Uiso   1.00
C1008  C     0.62120   0.22662   0.30029   0.00000  Uiso   1.00
C1009  C     0.58382   0.24478   0.30164   0.00000  Uiso   1.00
C1010  C     0.54451   0.37859   0.46092   0.00000  Uiso   1.00
C1011  C     0.61521   0.38980   0.44582   0.00000  Uiso   1.00
C1012  C     0.60816   0.39528   0.25678   0.00000  Uiso   1.00
C1013  C     0.58183   0.39996   0.21601   0.00000  Uiso   1.00
C1014  C     0.68636   0.21554   0.84624   0.00000  Uiso   1.00
C1015  C     0.63810   0.25993   0.63307   0.00000  Uiso   1.00
C1016  C     0.60209   0.28169   0.63341   0.00000  Uiso   1.00
C1017  C     0.68233   0.21256   0.59398   0.00000  Uiso   1.00
C1018  C     0.64635   0.23508   0.59323   0.00000  Uiso   1.00
C1019  C     0.54299   0.30231   0.58805   0.00000  Uiso   1.00
C1020  C     0.57705   0.27862   0.58954   0.00000  Uiso   1.00
C1021  C     0.61968   0.23209   0.55138   0.00000  Uiso   1.00
C1022  C     0.58528   0.25475   0.54846   0.00000  Uiso   1.00
C1023  C     0.54356   0.37744   0.71223   0.00000  Uiso   1.00
C1024  C     0.64266   0.26318   0.88387   0.00000  Uiso   1.00
C1025  C     0.60712   0.28245   0.88431   0.00000  Uiso   1.00
C1026  C     0.65004   0.23833   0.84404   0.00000  Uiso   1.00
C1027  C     0.54367   0.30062   0.83779   0.00000  Uiso   1.00
C1028  C     0.58047   0.27774   0.84191   0.00000  Uiso   1.00
C1029  C     0.62478   0.23308   0.80296   0.00000  Uiso   1.00
C1030  C     0.58783   0.25133   0.80159   0.00000  Uiso   1.00
C1031  C     0.54529   0.37865   0.96259   0.00000  Uiso   1.00
C1032  C     0.60318   0.39802   0.75692   0.00000  Uiso   1.00
C1033  C     0.58871   0.42580   0.17563   0.00000  Uiso   1.00
C1034  C     0.58780   0.57859   0.05246   0.00000  Uiso   1.00
C1035  C     0.57630   0.44083   0.48074   0.00000  Uiso   1.00
C1036  C     0.60135   0.40336   0.01380   0.00000  Uiso   1.00
C1037  C     0.63986   0.42185   0.01294   0.00000  Uiso   1.00
C1038  C     0.65072   0.41124   0.44708   0.00000  Uiso   1.00
C1039  C     0.69040   0.55031   0.09509   0.00000  Uiso   1.00
C1040  C     0.65277   0.57116   0.09035   0.00000  Uiso   1.00
C1041  C     0.64279   0.41625   0.25809   0.00000  Uiso   1.00
C1042  C     0.62593   0.56197   0.05266   0.00000  Uiso   1.00
C1043  C     0.62342   0.44800   0.17709   0.00000  Uiso   1.00
C1044  C     0.68541   0.46446   0.22050   0.00000  Uiso   1.00
C1045  C     0.64993   0.44188   0.21909   0.00000  Uiso   1.00
C1046  C     0.58898   0.58804   0.29556   0.00000  Uiso   1.00
C1047  C     0.68507   0.54734   0.34667   0.00000  Uiso   1.00
C1048  C     0.64939   0.57001   0.34436   0.00000  Uiso   1.00
C1049  C     0.62533   0.56962   0.29918   0.00000  Uiso   1.00
C1050  C     0.61187   0.46242   0.47915   0.00000  Uiso   1.00
C1051  C     0.68442   0.47083   0.46719   0.00000  Uiso   1.00
C1052  C     0.64871   0.44740   0.46426   0.00000  Uiso   1.00
C1053  C     0.64342   0.59683   0.12959   0.00000  Uiso   1.00
C1054  C     0.63458   0.58978   0.38707   0.00000  Uiso   1.00
C1055  C     0.57812   0.40362   0.46319   0.00000  Uiso   1.00
C1056  C     0.64580   0.59553   0.88403   0.00000  Uiso   1.00
C1057  C     0.61278   0.55148   0.60701   0.00000  Uiso   1.00
C1058  C     0.64007   0.41686   0.75845   0.00000  Uiso   1.00
C1059  C     0.62652   0.44443   0.92620   0.00000  Uiso   1.00
C1060  C     0.68684   0.54932   0.59676   0.00000  Uiso   1.00
C1061  C     0.64844   0.56802   0.59109   0.00000  Uiso   1.00
C1062  C     0.59017   0.42515   0.92239   0.00000  Uiso   1.00
C1063  C     0.62496   0.44758   0.67738   0.00000  Uiso   1.00
C1064  C     0.68672   0.46445   0.72077   0.00000  Uiso   1.00
C1065  C     0.64925   0.44346   0.72065   0.00000  Uiso   1.00
C1066  C     0.58950   0.42696   0.67293   0.00000  Uiso   1.00
C1067  C     0.68500   0.54332   0.84832   0.00000  Uiso   1.00
C1068  C     0.65123   0.56640   0.84869   0.00000  Uiso   1.00
C1069  C     0.62544   0.56181   0.80751   0.00000  Uiso   1.00
C1070  C     0.57699   0.57182   0.60496   0.00000  Uiso   1.00
C1071  C     0.59047   0.58338   0.80046   0.00000  Uiso   1.00
C1072  C     0.68752   0.46508   0.97062   0.00000  Uiso   1.00
C1073  C     0.65029   0.44363   0.96991   0.00000  Uiso   1.00
C1074  C     0.57845   0.40084   0.71290   0.00000  Uiso   1.00
C1075  C     0.57826   0.40394   0.96738   0.00000  Uiso   1.00
C1076  C     0.59873   0.60747   0.38408   0.00000  Uiso   1.00
C1077  C     0.60662   0.61452   0.12949   0.00000  Uiso   1.00
C1078  C     0.57487   0.60596   0.34075   0.00000  Uiso   1.00
C1079  C     0.61402   0.71987   0.43500   0.00000  Uiso   1.00
C1080  C     0.61965   0.78212   0.25093   0.00000  Uiso   1.00
C1081  C     0.54422   0.62996   0.08547   0.00000  Uiso   1.00
C1082  C     0.68971   0.79442   0.46428   0.00000  Uiso   1.00
C1083  C     0.58566   0.76104   0.25320   0.00000  Uiso   1.00
C1084  C     0.54398   0.71021   0.21298   0.00000  Uiso   1.00
C1085  C     0.57900   0.73638   0.21215   0.00000  Uiso   1.00
C1086  C     0.64814   0.77841   0.20897   0.00000  Uiso   1.00
C1087  C     0.54085   0.63157   0.33777   0.00000  Uiso   1.00
C1088  C     0.60702   0.73058   0.17192   0.00000  Uiso   1.00
C1089  C     0.64028   0.75433   0.16839   0.00000  Uiso   1.00
C1090  C     0.57859   0.60609   0.08822   0.00000  Uiso   1.00
C1091  C     0.54268   0.71129   0.46065   0.00000  Uiso   1.00
C1092  C     0.57992   0.73300   0.46075   0.00000  Uiso   1.00
C1093  C     0.65386   0.77107   0.46660   0.00000  Uiso   1.00
C1094  C     0.65013   0.73953   0.43373   0.00000  Uiso   1.00
C1095  C     0.58412   0.76512   0.48894   0.00000  Uiso   1.00
C1096  C     0.62064   0.78138   0.49393   0.00000  Uiso   1.00
C1097  C     0.64815   0.60555   0.57328   0.00000  Uiso   1.00
C1098  C     0.58301   0.61000   0.83903   0.00000  Uiso   1.00
C1099  C     0.65400   0.77410   0.95770   0.00000  Uiso   1.00
C1100  C     0.65126   0.74178   0.92733   0.00000  Uiso   1.00
C1101  C     0.54068   0.62983   0.58207   0.00000  Uiso   1.00
C1102  C     0.69077   0.79420   0.96080   0.00000  Uiso   1.00
C1103  C     0.61372   0.72373   0.92434   0.00000  Uiso   1.00
C1104  C     0.62641   0.77718   0.75559   0.00000  Uiso   1.00
C1105  C     0.59171   0.75647   0.75656   0.00000  Uiso   1.00
C1106  C     0.54217   0.71286   0.71012   0.00000  Uiso   1.00
C1107  C     0.57973   0.73564   0.71222   0.00000  Uiso   1.00
C1108  C     0.65191   0.77704   0.70947   0.00000  Uiso   1.00
C1109  C     0.54659   0.63193   0.83679   0.00000  Uiso   1.00
C1110  C     0.60589   0.73572   0.66777   0.00000  Uiso   1.00
C1111  C     0.64166   0.75510   0.66705   0.00000  Uiso   1.00
C1112  C     0.61274   0.62480   0.56832   0.00000  Uiso   1.00
C1113  C     0.61230   0.61652   0.87958   0.00000  Uiso   1.00
C1114  C     0.54485   0.71107   0.95840   0.00000  Uiso   1.00
C1115  C     0.58102   0.73535   0.95430   0.00000  Uiso   1.00
C1116  C     0.57658   0.60732   0.58329   0.00000  Uiso   1.00
C1117  C     0.58435   0.76607   0.98865   0.00000  Uiso   1.00
C1118  C     0.62084   0.78441   0.99181   0.00000  Uiso   1.00
C1119  C     0.64849   0.93251   0.06198   0.00000  Uiso   1.00
C1120  C     0.61628   0.95584   0.06712   0.00000  Uiso   1.00
C1121  C     0.68674   0.87704   0.08887   0.00000  Uiso   1.00
C1122  C     0.65037   0.89970   0.09016   0.00000  Uiso   1.00
C1123  C     0.54563   0.97032   0.09527   0.00000  Uiso   1.00
C1124  C     0.58026   0.94407   0.09282   0.00000  Uiso   1.00
C1125  C     0.61578   0.88816   0.11963   0.00000  Uiso   1.00
C1126  C     0.58168   0.91058   0.12066   0.00000  Uiso   1.00
C1127  C     0.64473   0.93374   0.30515   0.00000  Uiso   1.00
C1128  C     0.60962   0.95458   0.31020   0.00000  Uiso   1.00
C1129  C     0.68437   0.87664   0.33411   0.00000  Uiso   1.00
C1130  C     0.64643   0.89927   0.33172   0.00000  Uiso   1.00
C1131  C     0.54169   0.96546   0.34249   0.00000  Uiso   1.00
C1132  C     0.57798   0.94276   0.34216   0.00000  Uiso   1.00
C1133  C     0.61386   0.88851   0.36112   0.00000  Uiso   1.00
C1134  C     0.57874   0.90798   0.36449   0.00000  Uiso   1.00
C1135  C     0.68497   0.80130   0.20857   0.00000  Uiso   1.00
C1136  C     0.64182   0.93029   0.54427   0.00000  Uiso   1.00
C1137  C     0.60556   0.94967   0.54390   0.00000  Uiso   1.00
C1138  C     0.68563   0.87971   0.58313   0.00000  Uiso   1.00
C1139  C     0.64854   0.90278   0.58137   0.00000  Uiso   1.00
C1140  C     0.54126   0.96860   0.58755   0.00000  Uiso   1.00
C1141  C     0.57716   0.94410   0.58638   0.00000  Uiso   1.00
C1142  C     0.61982   0.89526   0.61903   0.00000  Uiso   1.00
C1143  C     0.58566   0.91725   0.62389   0.00000  Uiso   1.00
C1144  C     0.64926   0.93614   0.80647   0.00000  Uiso   1.00
C1145  C     0.61451   0.95802   0.80935   0.00000  Uiso   1.00
C1146  C     0.68718   0.87967   0.83429   0.00000  Uiso   1.00
C1147  C     0.65141   0.90150   0.83332   0.00000  Uiso   1.00
C1148  C     0.54526   0.96664   0.83922   0.00000  Uiso   1.00
C1149  C     0.58206   0.94479   0.83880   0.00000  Uiso   1.00
C1150  C     0.61706   0.88863   0.86130   0.00000  Uiso   1.00
C1151  C     0.58258   0.91013   0.86358   0.00000  Uiso   1.00
C1152  C     0.68752   0.80233   0.70997   0.00000  Uiso   1.00
C1153  C     0.86330   0.12394   0.43955   0.00000  Uiso   1.00
C1154  C     0.89778   0.10182   0.43810   0.00000  Uiso   1.00
C1155  C     0.86711   0.12318   0.19707   0.00000  Uiso   1.00
C1156  C     0.90164   0.10118   0.19739   0.00000  Uiso   1.00
C1157  C     0.79375   0.13048   0.21403   0.00000  Uiso   1.00
C1158  C     0.83055   0.10817   0.21535   0.00000  Uiso   1.00
C1159  C     0.93617   0.04434   0.21832   0.00000  Uiso   1.00
C1160  C     0.89970   0.06498   0.21556   0.00000  Uiso   1.00
C1161  C     0.79424   0.13520   0.46678   0.00000  Uiso   1.00
C1162  C     0.83137   0.11448   0.47086   0.00000  Uiso   1.00
C1163  C     0.93527   0.04649   0.46959   0.00000  Uiso   1.00
C1164  C     0.89972   0.06981   0.46918   0.00000  Uiso   1.00
C1165  C     0.82851   0.07222   0.23708   0.00000  Uiso   1.00
C1166  C     0.86361   0.05086   0.23827   0.00000  Uiso   1.00
C1167  C     0.83152   0.07922   0.73945   0.00000  Uiso   1.00
C1168  C     0.86705   0.05987   0.73866   0.00000  Uiso   1.00
C1169  C     0.79314   0.13469   0.71284   0.00000  Uiso   1.00
C1170  C     0.82927   0.11131   0.71206   0.00000  Uiso   1.00
C1171  C     0.93867   0.04995   0.71520   0.00000  Uiso   1.00
C1172  C     0.90164   0.07161   0.71113   0.00000  Uiso   1.00
C1173  C     0.89721   0.10463   0.94593   0.00000  Uiso   1.00
C1174  C     0.79109   0.13117   0.96230   0.00000  Uiso   1.00
C1175  C     0.82606   0.10803   0.96672   0.00000  Uiso   1.00
C1176  C     0.93522   0.04546   0.96577   0.00000  Uiso   1.00
C1177  C     0.89846   0.06773   0.96575   0.00000  Uiso   1.00
C1178  C     0.86295   0.12442   0.68487   0.00000  Uiso   1.00
C1179  C     0.89771   0.10483   0.68309   0.00000  Uiso   1.00
C1180  C     0.86074   0.12334   0.94594   0.00000  Uiso   1.00
C1181  C     0.82692   0.07340   0.99045   0.00000  Uiso   1.00
C1182  C     0.86348   0.05435   0.99105   0.00000  Uiso   1.00
C1183  C     0.83129   0.08070   0.50018   0.00000  Uiso   1.00
C1184  C     0.86686   0.05914   0.50034   0.00000  Uiso   1.00
C1185  C     0.78963   0.21585   0.33818   0.00000  Uiso   1.00
C1186  C     0.87049   0.28686   0.12496   0.00000  Uiso   1.00
C1187  C     0.83329   0.26709   0.12106   0.00000  Uiso   1.00
C1188  C     0.89544   0.24834   0.05508   0.00000  Uiso   1.00
C1189  C     0.86243   0.22872   0.05652   0.00000  Uiso   1.00
C1190  C     0.93777   0.29958   0.09326   0.00000  Uiso   1.00
C1191  C     0.90077   0.27801   0.09016   0.00000  Uiso   1.00
C1192  C     0.79383   0.21387   0.08634   0.00000  Uiso   1.00
C1193  C     0.82961   0.23777   0.08759   0.00000  Uiso   1.00
C1194  C     0.93531   0.37978   0.21767   0.00000  Uiso   1.00
C1195  C     0.86909   0.28528   0.37461   0.00000  Uiso   1.00
C1196  C     0.83151   0.26812   0.37208   0.00000  Uiso   1.00
C1197  C     0.89721   0.24354   0.31033   0.00000  Uiso   1.00
C1198  C     0.85940   0.22651   0.30741   0.00000  Uiso   1.00
C1199  C     0.93674   0.29578   0.34390   0.00000  Uiso   1.00
C1200  C     0.90058   0.27449   0.34268   0.00000  Uiso   1.00
C1201  C     0.87223   0.39441   0.25411   0.00000  Uiso   1.00
C1202  C     0.82614   0.23820   0.33825   0.00000  Uiso   1.00
C1203  C     0.93328   0.37739   0.46679   0.00000  Uiso   1.00
C1204  C     0.86366   0.39350   0.49776   0.00000  Uiso   1.00
C1205  C     0.86917   0.39281   0.00489   0.00000  Uiso   1.00
C1206  C     0.87199   0.28820   0.62829   0.00000  Uiso   1.00
C1207  C     0.83438   0.26919   0.62891   0.00000  Uiso   1.00
C1208  C     0.89404   0.24728   0.55974   0.00000  Uiso   1.00
C1209  C     0.85846   0.23018   0.56013   0.00000  Uiso   1.00
C1210  C     0.93881   0.29904   0.59691   0.00000  Uiso   1.00
C1211  C     0.90152   0.27636   0.59546   0.00000  Uiso   1.00
C1212  C     0.78888   0.22030   0.59083   0.00000  Uiso   1.00
C1213  C     0.82627   0.24074   0.59341   0.00000  Uiso   1.00
C1214  C     0.93456   0.37972   0.71513   0.00000  Uiso   1.00
C1215  C     0.86343   0.29240   0.86218   0.00000  Uiso   1.00
C1216  C     0.82894   0.27029   0.86653   0.00000  Uiso   1.00
C1217  C     0.89640   0.24430   0.81037   0.00000  Uiso   1.00
C1218  C     0.86079   0.22375   0.81267   0.00000  Uiso   1.00
C1219  C     0.93483   0.30185   0.84018   0.00000  Uiso   1.00
C1220  C     0.89666   0.27943   0.83440   0.00000  Uiso   1.00
C1221  C     0.79080   0.21450   0.84023   0.00000  Uiso   1.00
C1222  C     0.82759   0.23555   0.84137   0.00000  Uiso   1.00
C1223  C     0.93583   0.37910   0.96648   0.00000  Uiso   1.00
C1224  C     0.86434   0.38658   0.74107   0.00000  Uiso   1.00
C1225  C     0.89685   0.39952   0.71319   0.00000  Uiso   1.00
C1226  C     0.83627   0.41190   0.25182   0.00000  Uiso   1.00
C1227  C     0.89507   0.43208   0.42978   0.00000  Uiso   1.00
C1228  C     0.86412   0.55683   0.31352   0.00000  Uiso   1.00
C1229  C     0.89892   0.57640   0.31900   0.00000  Uiso   1.00
C1230  C     0.79219   0.54802   0.33855   0.00000  Uiso   1.00
C1231  C     0.78965   0.46218   0.21463   0.00000  Uiso   1.00
C1232  C     0.82866   0.44105   0.21695   0.00000  Uiso   1.00
C1233  C     0.86629   0.55004   0.06255   0.00000  Uiso   1.00
C1234  C     0.79689   0.54012   0.09099   0.00000  Uiso   1.00
C1235  C     0.83461   0.56025   0.09479   0.00000  Uiso   1.00
C1236  C     0.82909   0.56986   0.33965   0.00000  Uiso   1.00
C1237  C     0.79071   0.47072   0.46307   0.00000  Uiso   1.00
C1238  C     0.82578   0.44586   0.46440   0.00000  Uiso   1.00
C1239  C     0.85809   0.45203   0.18305   0.00000  Uiso   1.00
C1240  C     0.89502   0.43421   0.18389   0.00000  Uiso   1.00
C1241  C     0.85972   0.45398   0.43285   0.00000  Uiso   1.00
C1242  C     0.90204   0.56859   0.06523   0.00000  Uiso   1.00
C1243  C     0.83784   0.59145   0.12683   0.00000  Uiso   1.00
C1244  C     0.89671   0.40147   0.46359   0.00000  Uiso   1.00
C1245  C     0.90215   0.40348   0.21979   0.00000  Uiso   1.00
C1246  C     0.83009   0.41538   0.49886   0.00000  Uiso   1.00
C1247  C     0.83332   0.41310   0.00025   0.00000  Uiso   1.00
C1248  C     0.89298   0.43311   0.68844   0.00000  Uiso   1.00
C1249  C     0.82610   0.57217   0.83964   0.00000  Uiso   1.00
C1250  C     0.88796   0.59212   0.79849   0.00000  Uiso   1.00
C1251  C     0.82731   0.40662   0.74290   0.00000  Uiso   1.00
C1252  C     0.85322   0.57045   0.79907   0.00000  Uiso   1.00
C1253  C     0.90174   0.57889   0.57386   0.00000  Uiso   1.00
C1254  C     0.86856   0.55590   0.57331   0.00000  Uiso   1.00
C1255  C     0.79009   0.46229   0.71207   0.00000  Uiso   1.00
C1256  C     0.82394   0.43850   0.71293   0.00000  Uiso   1.00
C1257  C     0.86167   0.45511   0.93500   0.00000  Uiso   1.00
C1258  C     0.89729   0.43404   0.93570   0.00000  Uiso   1.00
C1259  C     0.79430   0.54502   0.59019   0.00000  Uiso   1.00
C1260  C     0.83091   0.56801   0.59299   0.00000  Uiso   1.00
C1261  C     0.79300   0.46641   0.96507   0.00000  Uiso   1.00
C1262  C     0.82950   0.44384   0.96787   0.00000  Uiso   1.00
C1263  C     0.85711   0.45173   0.68637   0.00000  Uiso   1.00
C1264  C     0.83399   0.59689   0.87968   0.00000  Uiso   1.00
C1265  C     0.79084   0.54571   0.83717   0.00000  Uiso   1.00
C1266  C     0.90086   0.40197   0.96847   0.00000  Uiso   1.00
C1267  C     0.87440   0.61079   0.12998   0.00000  Uiso   1.00
C1268  C     0.86768   0.62226   0.37258   0.00000  Uiso   1.00
C1269  C     0.79217   0.79772   0.45375   0.00000  Uiso   1.00
C1270  C     0.89669   0.76503   0.42514   0.00000  Uiso   1.00
C1271  C     0.90128   0.60937   0.34526   0.00000  Uiso   1.00
C1272  C     0.86650   0.78739   0.18758   0.00000  Uiso   1.00
C1273  C     0.93701   0.62636   0.09463   0.00000  Uiso   1.00
C1274  C     0.90136   0.76491   0.18914   0.00000  Uiso   1.00
C1275  C     0.83224   0.77761   0.21583   0.00000  Uiso   1.00
C1276  C     0.93470   0.70678   0.21763   0.00000  Uiso   1.00
C1277  C     0.89987   0.73127   0.21777   0.00000  Uiso   1.00
C1278  C     0.86182   0.78659   0.42495   0.00000  Uiso   1.00
C1279  C     0.93833   0.63266   0.34381   0.00000  Uiso   1.00
C1280  C     0.82852   0.77666   0.45744   0.00000  Uiso   1.00
C1281  C     0.93751   0.71565   0.46825   0.00000  Uiso   1.00
C1282  C     0.90079   0.73646   0.46536   0.00000  Uiso   1.00
C1283  C     0.83040   0.74311   0.24009   0.00000  Uiso   1.00
C1284  C     0.86312   0.72122   0.24323   0.00000  Uiso   1.00
C1285  C     0.86999   0.72884   0.49948   0.00000  Uiso   1.00
C1286  C     0.83330   0.74888   0.49475   0.00000  Uiso   1.00
C1287  C     0.83136   0.60280   0.37386   0.00000  Uiso   1.00
C1288  C     0.79369   0.79913   0.20574   0.00000  Uiso   1.00
C1289  C     0.90521   0.60103   0.09607   0.00000  Uiso   1.00
C1290  C     0.86152   0.62754   0.61266   0.00000  Uiso   1.00
C1291  C     0.82933   0.60296   0.61597   0.00000  Uiso   1.00
C1292  C     0.86427   0.78339   0.67383   0.00000  Uiso   1.00
C1293  C     0.87181   0.61650   0.88083   0.00000  Uiso   1.00
C1294  C     0.89809   0.61472   0.59533   0.00000  Uiso   1.00
C1295  C     0.87130   0.72578   0.98673   0.00000  Uiso   1.00
C1296  C     0.93378   0.63797   0.59484   0.00000  Uiso   1.00
C1297  C     0.89968   0.76539   0.68285   0.00000  Uiso   1.00
C1298  C     0.83282   0.78186   0.71182   0.00000  Uiso   1.00
C1299  C     0.93991   0.71900   0.72500   0.00000  Uiso   1.00
C1300  C     0.90572   0.74333   0.72494   0.00000  Uiso   1.00
C1301  C     0.90112   0.77312   0.93311   0.00000  Uiso   1.00
C1302  C     0.86494   0.79036   0.92853   0.00000  Uiso   1.00
C1303  C     0.93446   0.63723   0.84085   0.00000  Uiso   1.00
C1304  C     0.89785   0.61334   0.84041   0.00000  Uiso   1.00
C1305  C     0.83153   0.77790   0.95704   0.00000  Uiso   1.00
C1306  C     0.94089   0.71569   0.96527   0.00000  Uiso   1.00
C1307  C     0.90412   0.73956   0.96157   0.00000  Uiso   1.00
C1308  C     0.83957   0.76188   0.75869   0.00000  Uiso   1.00
C1309  C     0.87611   0.74260   0.76564   0.00000  Uiso   1.00
C1310  C     0.83489   0.74386   0.98384   0.00000  Uiso   1.00
C1311  C     0.79265   0.79960   0.95535   0.00000  Uiso   1.00
C1312  C     0.86535   0.95347   0.11279   0.00000  Uiso   1.00
C1313  C     0.83057   0.93224   0.11219   0.00000  Uiso   1.00
C1314  C     0.89804   0.90601   0.06106   0.00000  Uiso   1.00
C1315  C     0.86125   0.88790   0.05339   0.00000  Uiso   1.00
C1316  C     0.93735   0.96382   0.08843   0.00000  Uiso   1.00
C1317  C     0.89986   0.94101   0.08584   0.00000  Uiso   1.00
C1318  C     0.79059   0.87879   0.07817   0.00000  Uiso   1.00
C1319  C     0.82793   0.90016   0.08032   0.00000  Uiso   1.00
C1320  C     0.86983   0.94458   0.37608   0.00000  Uiso   1.00
C1321  C     0.83152   0.92784   0.37291   0.00000  Uiso   1.00
C1322  C     0.89724   0.90711   0.30527   0.00000  Uiso   1.00
C1323  C     0.85917   0.89047   0.30187   0.00000  Uiso   1.00
C1324  C     0.93815   0.96215   0.34207   0.00000  Uiso   1.00
C1325  C     0.90160   0.93620   0.34159   0.00000  Uiso   1.00
C1326  C     0.79256   0.87609   0.33209   0.00000  Uiso   1.00
C1327  C     0.82662   0.90033   0.33417   0.00000  Uiso   1.00
C1328  C     0.89612   0.92040   0.55666   0.00000  Uiso   1.00
C1329  C     0.86139   0.89866   0.54847   0.00000  Uiso   1.00
C1330  C     0.86295   0.95785   0.62169   0.00000  Uiso   1.00
C1331  C     0.83024   0.93619   0.61573   0.00000  Uiso   1.00
C1332  C     0.93467   0.97252   0.59489   0.00000  Uiso   1.00
C1333  C     0.89774   0.94855   0.59399   0.00000  Uiso   1.00
C1334  C     0.79064   0.88245   0.57593   0.00000  Uiso   1.00
C1335  C     0.82735   0.90642   0.57923   0.00000  Uiso   1.00
C1336  C     0.87741   0.94398   0.88116   0.00000  Uiso   1.00
C1337  C     0.83799   0.92936   0.87352   0.00000  Uiso   1.00
C1338  C     0.89572   0.91842   0.79836   0.00000  Uiso   1.00
C1339  C     0.85977   0.89901   0.79448   0.00000  Uiso   1.00
C1340  C     0.93886   0.96669   0.84080   0.00000  Uiso   1.00
C1341  C     0.90372   0.94368   0.83831   0.00000  Uiso   1.00
C1342  C     0.79414   0.88006   0.82999   0.00000  Uiso   1.00
C1343  C     0.83025   0.90406   0.83346   0.00000  Uiso   1.00
C1344  C     0.79459   0.80350   0.70517   0.00000  Uiso   1.00
O1345  O     0.19232   0.14970   0.00605   0.00000  Uiso   1.00
O1346  O     0.03343   0.03118   0.41681   0.00000  Uiso   1.00
O1347  O     0.01903   0.04497   0.25380   0.00000  Uiso   1.00
O1348  O     0.19155   0.14998   0.25995   0.00000  Uiso   1.00
O1349  O     0.20912   0.13240   0.42325   0.00000  Uiso   1.00
O1350  O     0.20635   0.13431   0.17350   0.00000  Uiso   1.00
O1351  O     0.03570   0.02689   0.17021   0.00000  Uiso   1.00
O1352  O     0.19167   0.19405   0.13447   0.00000  Uiso   1.00
O1353  O     0.19241   0.19074   0.38128   0.00000  Uiso   1.00
O1354  O     0.02107   0.04360   0.00400   0.00000  Uiso   1.00
O1355  O     0.20591   0.13710   0.91985   0.00000  Uiso   1.00
O1356  O     0.01811   0.04973   0.74985   0.00000  Uiso   1.00
O1357  O     0.03827   0.02970   0.66714   0.00000  Uiso   1.00
O1358  O     0.03649   0.03001   0.91872   0.00000  Uiso   1.00
O1359  O     0.19459   0.15043   0.75862   0.00000  Uiso   1.00
O1360  O     0.20513   0.13927   0.67079   0.00000  Uiso   1.00
O1361  O     0.19188   0.14863   0.50767   0.00000  Uiso   1.00
O1362  O     0.01995   0.04741   0.50396   0.00000  Uiso   1.00
O1363  O     0.19773   0.19957   0.88350   0.00000  Uiso   1.00
O1364  O     0.01943   0.30259   0.12647   0.00000  Uiso   1.00
O1365  O     0.01876   0.30047   0.37994   0.00000  Uiso   1.00
O1366  O     0.03308   0.36485   0.16916   0.00000  Uiso   1.00
O1367  O     0.20838   0.21022   0.05155   0.00000  Uiso   1.00
O1368  O     0.20846   0.20905   0.30154   0.00000  Uiso   1.00
O1369  O     0.03279   0.31396   0.29561   0.00000  Uiso   1.00
O1370  O     0.03473   0.36157   0.41996   0.00000  Uiso   1.00
O1371  O     0.01790   0.37658   0.25610   0.00000  Uiso   1.00
O1372  O     0.03451   0.31508   0.04045   0.00000  Uiso   1.00
O1373  O     0.03501   0.31972   0.79277   0.00000  Uiso   1.00
O1374  O     0.01682   0.30123   0.87297   0.00000  Uiso   1.00
O1375  O     0.20897   0.21183   0.79719   0.00000  Uiso   1.00
O1376  O     0.01987   0.30481   0.62989   0.00000  Uiso   1.00
O1377  O     0.20769   0.21271   0.54583   0.00000  Uiso   1.00
O1378  O     0.01990   0.37878   0.50304   0.00000  Uiso   1.00
O1379  O     0.03538   0.35875   0.91643   0.00000  Uiso   1.00
O1380  O     0.03299   0.36861   0.66737   0.00000  Uiso   1.00
O1381  O     0.02103   0.38148   0.75451   0.00000  Uiso   1.00
O1382  O     0.03353   0.31878   0.54393   0.00000  Uiso   1.00
O1383  O     0.02113   0.37691   0.99921   0.00000  Uiso   1.00
O1384  O     0.19518   0.20082   0.63103   0.00000  Uiso   1.00
O1385  O     0.21185   0.46434   0.42788   0.00000  Uiso   1.00
O1386  O     0.19367   0.48243   0.01193   0.00000  Uiso   1.00
O1387  O     0.20869   0.54547   0.05099   0.00000  Uiso   1.00
O1388  O     0.20487   0.47092   0.17750   0.00000  Uiso   1.00
O1389  O     0.19329   0.52379   0.38471   0.00000  Uiso   1.00
O1390  O     0.21269   0.54311   0.30305   0.00000  Uiso   1.00
O1391  O     0.19686   0.48267   0.26588   0.00000  Uiso   1.00
O1392  O     0.19573   0.53261   0.13782   0.00000  Uiso   1.00
O1393  O     0.19355   0.47868   0.51338   0.00000  Uiso   1.00
O1394  O     0.20526   0.53941   0.55306   0.00000  Uiso   1.00
O1395  O     0.19207   0.52971   0.64034   0.00000  Uiso   1.00
O1396  O     0.19636   0.52804   0.88586   0.00000  Uiso   1.00
O1397  O     0.21402   0.54516   0.80613   0.00000  Uiso   1.00
O1398  O     0.21314   0.46948   0.68154   0.00000  Uiso   1.00
O1399  O     0.19455   0.48369   0.76374   0.00000  Uiso   1.00
O1400  O     0.21129   0.46768   0.92725   0.00000  Uiso   1.00
O1401  O     0.02290   0.63814   0.38009   0.00000  Uiso   1.00
O1402  O     0.03432   0.70076   0.41901   0.00000  Uiso   1.00
O1403  O     0.03468   0.65050   0.29388   0.00000  Uiso   1.00
O1404  O     0.01566   0.70974   0.25062   0.00000  Uiso   1.00
O1405  O     0.03121   0.69361   0.16748   0.00000  Uiso   1.00
O1406  O     0.03249   0.64430   0.04360   0.00000  Uiso   1.00
O1407  O     0.01933   0.63099   0.12962   0.00000  Uiso   1.00
O1408  O     0.02120   0.70634   0.00325   0.00000  Uiso   1.00
O1409  O     0.03517   0.65216   0.79533   0.00000  Uiso   1.00
O1410  O     0.01680   0.63349   0.87772   0.00000  Uiso   1.00
O1411  O     0.03873   0.68762   0.92167   0.00000  Uiso   1.00
O1412  O     0.02339   0.71292   0.75624   0.00000  Uiso   1.00
O1413  O     0.03390   0.69833   0.67201   0.00000  Uiso   1.00
O1414  O     0.01805   0.63655   0.63309   0.00000  Uiso   1.00
O1415  O     0.03180   0.65115   0.54664   0.00000  Uiso   1.00
O1416  O     0.02210   0.71196   0.50711   0.00000  Uiso   1.00
O1417  O     0.20553   0.79981   0.92989   0.00000  Uiso   1.00
O1418  O     0.19564   0.86457   0.39085   0.00000  Uiso   1.00
O1419  O     0.01926   0.96783   0.38040   0.00000  Uiso   1.00
O1420  O     0.03468   0.98036   0.04559   0.00000  Uiso   1.00
O1421  O     0.20729   0.87328   0.05551   0.00000  Uiso   1.00
O1422  O     0.02086   0.96623   0.13374   0.00000  Uiso   1.00
O1423  O     0.19684   0.86199   0.14328   0.00000  Uiso   1.00
O1424  O     0.03534   0.98251   0.29557   0.00000  Uiso   1.00
O1425  O     0.19445   0.81495   0.26478   0.00000  Uiso   1.00
O1426  O     0.20965   0.87792   0.30397   0.00000  Uiso   1.00
O1427  O     0.19349   0.80972   0.01787   0.00000  Uiso   1.00
O1428  O     0.20910   0.80102   0.42870   0.00000  Uiso   1.00
O1429  O     0.20780   0.80213   0.17959   0.00000  Uiso   1.00
O1430  O     0.03394   0.98366   0.54560   0.00000  Uiso   1.00
O1431  O     0.02095   0.97181   0.87778   0.00000  Uiso   1.00
O1432  O     0.20771   0.87522   0.55351   0.00000  Uiso   1.00
O1433  O     0.19362   0.86232   0.88965   0.00000  Uiso   1.00
O1434  O     0.01800   0.96817   0.62787   0.00000  Uiso   1.00
O1435  O     0.19483   0.86308   0.64061   0.00000  Uiso   1.00
O1436  O     0.03648   0.98915   0.79242   0.00000  Uiso   1.00
O1437  O     0.19530   0.81868   0.76786   0.00000  Uiso   1.00
O1438  O     0.21262   0.87908   0.80543   0.00000  Uiso   1.00
O1439  O     0.19545   0.81633   0.51456   0.00000  Uiso   1.00
O1440  O     0.20907   0.80226   0.68416   0.00000  Uiso   1.00
O1441  O     0.28525   0.15001   0.41513   0.00000  Uiso   1.00
O1442  O     0.28314   0.19036   0.29099   0.00000  Uiso   1.00
O1443  O     0.26524   0.13115   0.24993   0.00000  Uiso   1.00
O1444  O     0.44732   0.03386   0.26493   0.00000  Uiso   1.00
O1445  O     0.45805   0.04891   0.42751   0.00000  Uiso   1.00
O1446  O     0.45754   0.04330   0.17856   0.00000  Uiso   1.00
O1447  O     0.28239   0.14979   0.16763   0.00000  Uiso   1.00
O1448  O     0.44770   0.03126   0.01515   0.00000  Uiso   1.00
O1449  O     0.28288   0.19576   0.04733   0.00000  Uiso   1.00
O1450  O     0.26881   0.13585   0.00307   0.00000  Uiso   1.00
O1451  O     0.26750   0.13595   0.49910   0.00000  Uiso   1.00
O1452  O     0.44307   0.03517   0.51414   0.00000  Uiso   1.00
O1453  O     0.27213   0.13914   0.75087   0.00000  Uiso   1.00
O1454  O     0.44374   0.03149   0.76428   0.00000  Uiso   1.00
O1455  O     0.28306   0.15036   0.91675   0.00000  Uiso   1.00
O1456  O     0.45866   0.04785   0.68226   0.00000  Uiso   1.00
O1457  O     0.28149   0.15060   0.66566   0.00000  Uiso   1.00
O1458  O     0.45573   0.04001   0.92801   0.00000  Uiso   1.00
O1459  O     0.28416   0.19815   0.53774   0.00000  Uiso   1.00
O1460  O     0.28256   0.19982   0.79055   0.00000  Uiso   1.00
O1461  O     0.26637   0.20974   0.37114   0.00000  Uiso   1.00
O1462  O     0.44364   0.36279   0.25831   0.00000  Uiso   1.00
O1463  O     0.45557   0.30221   0.30139   0.00000  Uiso   1.00
O1464  O     0.46013   0.37895   0.42486   0.00000  Uiso   1.00
O1465  O     0.44182   0.31730   0.13545   0.00000  Uiso   1.00
O1466  O     0.45670   0.29854   0.04914   0.00000  Uiso   1.00
O1467  O     0.46276   0.37887   0.17645   0.00000  Uiso   1.00
O1468  O     0.44285   0.31633   0.38603   0.00000  Uiso   1.00
O1469  O     0.26698   0.21057   0.13044   0.00000  Uiso   1.00
O1470  O     0.44764   0.36442   0.01073   0.00000  Uiso   1.00
O1471  O     0.44454   0.36294   0.75864   0.00000  Uiso   1.00
O1472  O     0.46091   0.30105   0.80156   0.00000  Uiso   1.00
O1473  O     0.46060   0.37860   0.92467   0.00000  Uiso   1.00
O1474  O     0.44224   0.32198   0.63441   0.00000  Uiso   1.00
O1475  O     0.27055   0.21266   0.62531   0.00000  Uiso   1.00
O1476  O     0.46260   0.30213   0.55281   0.00000  Uiso   1.00
O1477  O     0.46050   0.38211   0.67844   0.00000  Uiso   1.00
O1478  O     0.44379   0.31721   0.88421   0.00000  Uiso   1.00
O1479  O     0.27212   0.21268   0.87613   0.00000  Uiso   1.00
O1480  O     0.44523   0.36446   0.51006   0.00000  Uiso   1.00
O1481  O     0.28565   0.52940   0.29497   0.00000  Uiso   1.00
O1482  O     0.28144   0.48149   0.16842   0.00000  Uiso   1.00
O1483  O     0.27250   0.54288   0.13314   0.00000  Uiso   1.00
O1484  O     0.28380   0.53216   0.04508   0.00000  Uiso   1.00
O1485  O     0.28487   0.48521   0.42288   0.00000  Uiso   1.00
O1486  O     0.26828   0.54322   0.37894   0.00000  Uiso   1.00
O1487  O     0.27169   0.46795   0.25520   0.00000  Uiso   1.00
O1488  O     0.27109   0.46854   0.00927   0.00000  Uiso   1.00
O1489  O     0.27081   0.46983   0.75432   0.00000  Uiso   1.00
O1490  O     0.28737   0.48974   0.67268   0.00000  Uiso   1.00
O1491  O     0.28560   0.52914   0.79475   0.00000  Uiso   1.00
O1492  O     0.27071   0.54297   0.88125   0.00000  Uiso   1.00
O1493  O     0.28618   0.48264   0.92273   0.00000  Uiso   1.00
O1494  O     0.26625   0.54827   0.62732   0.00000  Uiso   1.00
O1495  O     0.28072   0.53044   0.54394   0.00000  Uiso   1.00
O1496  O     0.26951   0.46576   0.50586   0.00000  Uiso   1.00
O1497  O     0.44465   0.69214   0.25908   0.00000  Uiso   1.00
O1498  O     0.46113   0.63070   0.29965   0.00000  Uiso   1.00
O1499  O     0.45911   0.71110   0.42372   0.00000  Uiso   1.00
O1500  O     0.46034   0.70928   0.17634   0.00000  Uiso   1.00
O1501  O     0.44305   0.64888   0.38320   0.00000  Uiso   1.00
O1502  O     0.44673   0.69802   0.01064   0.00000  Uiso   1.00
O1503  O     0.44685   0.64938   0.13448   0.00000  Uiso   1.00
O1504  O     0.45679   0.63469   0.04868   0.00000  Uiso   1.00
O1505  O     0.27235   0.79825   0.01051   0.00000  Uiso   1.00
O1506  O     0.44707   0.64498   0.88300   0.00000  Uiso   1.00
O1507  O     0.46437   0.63096   0.79910   0.00000  Uiso   1.00
O1508  O     0.44334   0.69045   0.75964   0.00000  Uiso   1.00
O1509  O     0.45610   0.70720   0.92211   0.00000  Uiso   1.00
O1510  O     0.45786   0.63290   0.54913   0.00000  Uiso   1.00
O1511  O     0.45879   0.70744   0.67758   0.00000  Uiso   1.00
O1512  O     0.44406   0.64764   0.63335   0.00000  Uiso   1.00
O1513  O     0.44372   0.69453   0.50892   0.00000  Uiso   1.00
O1514  O     0.27100   0.79716   0.51017   0.00000  Uiso   1.00
O1515  O     0.28622   0.86140   0.29955   0.00000  Uiso   1.00
O1516  O     0.27452   0.87444   0.38412   0.00000  Uiso   1.00
O1517  O     0.44272   0.98913   0.38850   0.00000  Uiso   1.00
O1518  O     0.28377   0.81091   0.42159   0.00000  Uiso   1.00
O1519  O     0.45799   0.97009   0.30513   0.00000  Uiso   1.00
O1520  O     0.27697   0.87442   0.13775   0.00000  Uiso   1.00
O1521  O     0.28479   0.81188   0.17444   0.00000  Uiso   1.00
O1522  O     0.44681   0.98161   0.13596   0.00000  Uiso   1.00
O1523  O     0.28292   0.86242   0.04934   0.00000  Uiso   1.00
O1524  O     0.46352   0.96777   0.05272   0.00000  Uiso   1.00
O1525  O     0.27050   0.80109   0.26019   0.00000  Uiso   1.00
O1526  O     0.28781   0.86041   0.80009   0.00000  Uiso   1.00
O1527  O     0.44925   0.97616   0.89199   0.00000  Uiso   1.00
O1528  O     0.28150   0.81102   0.92417   0.00000  Uiso   1.00
O1529  O     0.45831   0.96697   0.80299   0.00000  Uiso   1.00
O1530  O     0.26830   0.87838   0.62731   0.00000  Uiso   1.00
O1531  O     0.28678   0.81709   0.67048   0.00000  Uiso   1.00
O1532  O     0.44170   0.98957   0.63792   0.00000  Uiso   1.00
O1533  O     0.28573   0.85962   0.54691   0.00000  Uiso   1.00
O1534  O     0.45490   0.97240   0.55531   0.00000  Uiso   1.00
O1535  O     0.27248   0.87449   0.88657   0.00000  Uiso   1.00
O1536  O     0.27006   0.80049   0.75520   0.00000  Uiso   1.00
O1537  O     0.69497   0.14874   0.01141   0.00000  Uiso   1.00
O1538  O     0.69885   0.19603   0.13807   0.00000  Uiso   1.00
O1539  O     0.69951   0.14619   0.26170   0.00000  Uiso   1.00
O1540  O     0.53441   0.03068   0.42318   0.00000  Uiso   1.00
O1541  O     0.53537   0.03018   0.17347   0.00000  Uiso   1.00
O1542  O     0.52409   0.04166   0.26078   0.00000  Uiso   1.00
O1543  O     0.70825   0.13613   0.42684   0.00000  Uiso   1.00
O1544  O     0.71146   0.13347   0.17506   0.00000  Uiso   1.00
O1545  O     0.52127   0.04563   0.00945   0.00000  Uiso   1.00
O1546  O     0.69320   0.19568   0.38434   0.00000  Uiso   1.00
O1547  O     0.53214   0.03484   0.92212   0.00000  Uiso   1.00
O1548  O     0.52111   0.04384   0.76001   0.00000  Uiso   1.00
O1549  O     0.70675   0.13568   0.92448   0.00000  Uiso   1.00
O1550  O     0.71011   0.13642   0.67646   0.00000  Uiso   1.00
O1551  O     0.53502   0.03083   0.67433   0.00000  Uiso   1.00
O1552  O     0.69568   0.14774   0.51728   0.00000  Uiso   1.00
O1553  O     0.69393   0.15027   0.76225   0.00000  Uiso   1.00
O1554  O     0.51849   0.04813   0.50774   0.00000  Uiso   1.00
O1555  O     0.69514   0.19950   0.88836   0.00000  Uiso   1.00
O1556  O     0.69301   0.19582   0.63839   0.00000  Uiso   1.00
O1557  O     0.53269   0.31470   0.29427   0.00000  Uiso   1.00
O1558  O     0.51948   0.29987   0.38071   0.00000  Uiso   1.00
O1559  O     0.51696   0.29653   0.12875   0.00000  Uiso   1.00
O1560  O     0.52359   0.37224   0.00555   0.00000  Uiso   1.00
O1561  O     0.71049   0.21405   0.05151   0.00000  Uiso   1.00
O1562  O     0.70757   0.20854   0.29881   0.00000  Uiso   1.00
O1563  O     0.53699   0.36015   0.16801   0.00000  Uiso   1.00
O1564  O     0.53595   0.36322   0.41548   0.00000  Uiso   1.00
O1565  O     0.52190   0.37627   0.25365   0.00000  Uiso   1.00
O1566  O     0.53130   0.30927   0.04265   0.00000  Uiso   1.00
O1567  O     0.70372   0.21070   0.55145   0.00000  Uiso   1.00
O1568  O     0.52056   0.30211   0.87778   0.00000  Uiso   1.00
O1569  O     0.70612   0.21126   0.80310   0.00000  Uiso   1.00
O1570  O     0.53416   0.36291   0.66814   0.00000  Uiso   1.00
O1571  O     0.51777   0.30182   0.62800   0.00000  Uiso   1.00
O1572  O     0.53599   0.36405   0.91572   0.00000  Uiso   1.00
O1573  O     0.53606   0.31565   0.79223   0.00000  Uiso   1.00
O1574  O     0.52060   0.37777   0.75370   0.00000  Uiso   1.00
O1575  O     0.53548   0.31964   0.54480   0.00000  Uiso   1.00
O1576  O     0.51895   0.37956   0.50033   0.00000  Uiso   1.00
O1577  O     0.69458   0.48404   0.01226   0.00000  Uiso   1.00
O1578  O     0.70554   0.46942   0.17568   0.00000  Uiso   1.00
O1579  O     0.70623   0.54430   0.30371   0.00000  Uiso   1.00
O1580  O     0.69256   0.52867   0.38859   0.00000  Uiso   1.00
O1581  O     0.69491   0.48055   0.26385   0.00000  Uiso   1.00
O1582  O     0.69587   0.53194   0.13747   0.00000  Uiso   1.00
O1583  O     0.71022   0.46817   0.42915   0.00000  Uiso   1.00
O1584  O     0.71161   0.54623   0.05363   0.00000  Uiso   1.00
O1585  O     0.69371   0.53116   0.63882   0.00000  Uiso   1.00
O1586  O     0.69361   0.52507   0.88987   0.00000  Uiso   1.00
O1587  O     0.71142   0.46499   0.92979   0.00000  Uiso   1.00
O1588  O     0.70776   0.54133   0.80598   0.00000  Uiso   1.00
O1589  O     0.69176   0.48663   0.51221   0.00000  Uiso   1.00
O1590  O     0.69458   0.47948   0.76447   0.00000  Uiso   1.00
O1591  O     0.70725   0.46702   0.67778   0.00000  Uiso   1.00
O1592  O     0.70900   0.54602   0.55441   0.00000  Uiso   1.00
O1593  O     0.53512   0.69505   0.16779   0.00000  Uiso   1.00
O1594  O     0.52209   0.63334   0.12770   0.00000  Uiso   1.00
O1595  O     0.51921   0.63467   0.37832   0.00000  Uiso   1.00
O1596  O     0.53408   0.69430   0.41572   0.00000  Uiso   1.00
O1597  O     0.51861   0.70773   0.25127   0.00000  Uiso   1.00
O1598  O     0.53466   0.64480   0.04250   0.00000  Uiso   1.00
O1599  O     0.53494   0.64744   0.29369   0.00000  Uiso   1.00
O1600  O     0.52543   0.70700   0.00430   0.00000  Uiso   1.00
O1601  O     0.70930   0.79811   0.42067   0.00000  Uiso   1.00
O1602  O     0.52022   0.63466   0.62685   0.00000  Uiso   1.00
O1603  O     0.52399   0.63179   0.87857   0.00000  Uiso   1.00
O1604  O     0.53839   0.64966   0.79165   0.00000  Uiso   1.00
O1605  O     0.53219   0.69607   0.91507   0.00000  Uiso   1.00
O1606  O     0.51732   0.71116   0.75054   0.00000  Uiso   1.00
O1607  O     0.53440   0.64918   0.54035   0.00000  Uiso   1.00
O1608  O     0.53562   0.69376   0.66882   0.00000  Uiso   1.00
O1609  O     0.51982   0.70988   0.50250   0.00000  Uiso   1.00
O1610  O     0.51959   0.97021   0.38323   0.00000  Uiso   1.00
O1611  O     0.69191   0.81775   0.25159   0.00000  Uiso   1.00
O1612  O     0.53795   0.98690   0.05061   0.00000  Uiso   1.00
O1613  O     0.70809   0.87463   0.04597   0.00000  Uiso   1.00
O1614  O     0.69052   0.85855   0.37660   0.00000  Uiso   1.00
O1615  O     0.52432   0.97020   0.13781   0.00000  Uiso   1.00
O1616  O     0.69447   0.85851   0.13071   0.00000  Uiso   1.00
O1617  O     0.53366   0.98136   0.29769   0.00000  Uiso   1.00
O1618  O     0.71114   0.87816   0.29576   0.00000  Uiso   1.00
O1619  O     0.69593   0.81298   0.00271   0.00000  Uiso   1.00
O1620  O     0.71188   0.80014   0.17277   0.00000  Uiso   1.00
O1621  O     0.69760   0.81842   0.75257   0.00000  Uiso   1.00
O1622  O     0.69575   0.86222   0.87825   0.00000  Uiso   1.00
O1623  O     0.52802   0.97251   0.88448   0.00000  Uiso   1.00
O1624  O     0.53228   0.98468   0.54423   0.00000  Uiso   1.00
O1625  O     0.70836   0.87787   0.54213   0.00000  Uiso   1.00
O1626  O     0.51927   0.97186   0.63129   0.00000  Uiso   1.00
O1627  O     0.69381   0.86364   0.62710   0.00000  Uiso   1.00
O1628  O     0.53332   0.98223   0.79565   0.00000  Uiso   1.00
O1629  O     0.71284   0.87872   0.79470   0.00000  Uiso   1.00
O1630  O     0.69501   0.81649   0.50429   0.00000  Uiso   1.00
O1631  O     0.71083   0.80315   0.66658   0.00000  Uiso   1.00
O1632  O     0.70956   0.80025   0.91678   0.00000  Uiso   1.00
O1633  O     0.95653   0.04410   0.42642   0.00000  Uiso   1.00
O1634  O     0.77514   0.13601   0.25726   0.00000  Uiso   1.00
O1635  O     0.94346   0.02556   0.26051   0.00000  Uiso   1.00
O1636  O     0.78516   0.15043   0.42164   0.00000  Uiso   1.00
O1637  O     0.95908   0.04203   0.17786   0.00000  Uiso   1.00
O1638  O     0.78687   0.14793   0.16949   0.00000  Uiso   1.00
O1639  O     0.94287   0.02886   0.00976   0.00000  Uiso   1.00
O1640  O     0.77031   0.13657   0.00353   0.00000  Uiso   1.00
O1641  O     0.78458   0.19724   0.04298   0.00000  Uiso   1.00
O1642  O     0.78262   0.19935   0.29544   0.00000  Uiso   1.00
O1643  O     0.78398   0.14832   0.91868   0.00000  Uiso   1.00
O1644  O     0.77248   0.13909   0.50817   0.00000  Uiso   1.00
O1645  O     0.76957   0.13534   0.75391   0.00000  Uiso   1.00
O1646  O     0.94484   0.03088   0.75753   0.00000  Uiso   1.00
O1647  O     0.96160   0.04423   0.92724   0.00000  Uiso   1.00
O1648  O     0.94383   0.03080   0.51336   0.00000  Uiso   1.00
O1649  O     0.96422   0.04934   0.67553   0.00000  Uiso   1.00
O1650  O     0.78522   0.15378   0.67093   0.00000  Uiso   1.00
O1651  O     0.78327   0.19712   0.79695   0.00000  Uiso   1.00
O1652  O     0.94392   0.36186   0.01056   0.00000  Uiso   1.00
O1653  O     0.76849   0.21287   0.37887   0.00000  Uiso   1.00
O1654  O     0.94341   0.36210   0.26125   0.00000  Uiso   1.00
O1655  O     0.95684   0.30111   0.30082   0.00000  Uiso   1.00
O1656  O     0.95800   0.37785   0.42674   0.00000  Uiso   1.00
O1657  O     0.94306   0.32013   0.13406   0.00000  Uiso   1.00
O1658  O     0.95968   0.30119   0.05148   0.00000  Uiso   1.00
O1659  O     0.95851   0.37949   0.17632   0.00000  Uiso   1.00
O1660  O     0.94533   0.31317   0.38611   0.00000  Uiso   1.00
O1661  O     0.77220   0.20876   0.12832   0.00000  Uiso   1.00
O1662  O     0.76719   0.21464   0.63193   0.00000  Uiso   1.00
O1663  O     0.76945   0.21142   0.88129   0.00000  Uiso   1.00
O1664  O     0.94394   0.36466   0.75740   0.00000  Uiso   1.00
O1665  O     0.95942   0.30392   0.80016   0.00000  Uiso   1.00
O1666  O     0.78154   0.20132   0.54790   0.00000  Uiso   1.00
O1667  O     0.96077   0.37869   0.92725   0.00000  Uiso   1.00
O1668  O     0.94590   0.31917   0.63787   0.00000  Uiso   1.00
O1669  O     0.95878   0.30120   0.55204   0.00000  Uiso   1.00
O1670  O     0.95754   0.37924   0.67517   0.00000  Uiso   1.00
O1671  O     0.94194   0.31844   0.88433   0.00000  Uiso   1.00
O1672  O     0.94145   0.36071   0.51121   0.00000  Uiso   1.00
O1673  O     0.76746   0.46630   0.00339   0.00000  Uiso   1.00
O1674  O     0.76604   0.54730   0.37730   0.00000  Uiso   1.00
O1675  O     0.76992   0.46885   0.25799   0.00000  Uiso   1.00
O1676  O     0.78549   0.53019   0.29566   0.00000  Uiso   1.00
O1677  O     0.77332   0.54080   0.13179   0.00000  Uiso   1.00
O1678  O     0.78570   0.48821   0.41835   0.00000  Uiso   1.00
O1679  O     0.78776   0.52421   0.04593   0.00000  Uiso   1.00
O1680  O     0.78245   0.47938   0.17158   0.00000  Uiso   1.00
O1681  O     0.78768   0.48348   0.92231   0.00000  Uiso   1.00
O1682  O     0.76838   0.54204   0.87822   0.00000  Uiso   1.00
O1683  O     0.77121   0.54282   0.63037   0.00000  Uiso   1.00
O1684  O     0.78455   0.52770   0.79312   0.00000  Uiso   1.00
O1685  O     0.76974   0.46524   0.75477   0.00000  Uiso   1.00
O1686  O     0.78295   0.48049   0.66946   0.00000  Uiso   1.00
O1687  O     0.78386   0.52891   0.54449   0.00000  Uiso   1.00
O1688  O     0.76479   0.47172   0.50145   0.00000  Uiso   1.00
O1689  O     0.94407   0.69598   0.00764   0.00000  Uiso   1.00
O1690  O     0.94217   0.68902   0.25940   0.00000  Uiso   1.00
O1691  O     0.96197   0.63166   0.30374   0.00000  Uiso   1.00
O1692  O     0.95687   0.71160   0.42516   0.00000  Uiso   1.00
O1693  O     0.95653   0.63344   0.04924   0.00000  Uiso   1.00
O1694  O     0.95757   0.70508   0.17586   0.00000  Uiso   1.00
O1695  O     0.94446   0.64839   0.38882   0.00000  Uiso   1.00
O1696  O     0.94598   0.64228   0.13719   0.00000  Uiso   1.00
O1697  O     0.76824   0.79901   0.24383   0.00000  Uiso   1.00
O1698  O     0.94643   0.69983   0.51165   0.00000  Uiso   1.00
O1699  O     0.95974   0.71419   0.68168   0.00000  Uiso   1.00
O1700  O     0.94733   0.70141   0.76880   0.00000  Uiso   1.00
O1701  O     0.96653   0.71440   0.92821   0.00000  Uiso   1.00
O1702  O     0.94232   0.65657   0.88290   0.00000  Uiso   1.00
O1703  O     0.95989   0.63683   0.80188   0.00000  Uiso   1.00
O1704  O     0.95671   0.63829   0.55283   0.00000  Uiso   1.00
O1705  O     0.94296   0.65418   0.63842   0.00000  Uiso   1.00
O1706  O     0.77041   0.79959   0.99886   0.00000  Uiso   1.00
O1707  O     0.78336   0.81467   0.41049   0.00000  Uiso   1.00
O1708  O     0.96161   0.96508   0.30230   0.00000  Uiso   1.00
O1709  O     0.94305   0.98268   0.38343   0.00000  Uiso   1.00
O1710  O     0.78519   0.85796   0.28979   0.00000  Uiso   1.00
O1711  O     0.76908   0.87442   0.11978   0.00000  Uiso   1.00
O1712  O     0.78765   0.81625   0.16285   0.00000  Uiso   1.00
O1713  O     0.94497   0.98112   0.13319   0.00000  Uiso   1.00
O1714  O     0.78433   0.85961   0.03710   0.00000  Uiso   1.00
O1715  O     0.95934   0.96717   0.04593   0.00000  Uiso   1.00
O1716  O     0.76595   0.87565   0.37124   0.00000  Uiso   1.00
O1717  O     0.77089   0.80237   0.49518   0.00000  Uiso   1.00
O1718  O     0.77249   0.87655   0.87256   0.00000  Uiso   1.00
O1719  O     0.96283   0.96990   0.79922   0.00000  Uiso   1.00
O1720  O     0.78346   0.81299   0.90951   0.00000  Uiso   1.00
O1721  O     0.76987   0.80393   0.74492   0.00000  Uiso   1.00
O1722  O     0.94654   0.98446   0.88350   0.00000  Uiso   1.00
O1723  O     0.76790   0.88048   0.62003   0.00000  Uiso   1.00
O1724  O     0.78650   0.81977   0.66191   0.00000  Uiso   1.00
O1725  O     0.94428   0.98774   0.63852   0.00000  Uiso   1.00
O1726  O     0.78488   0.86292   0.53580   0.00000  Uiso   1.00
O1727  O     0.95882   0.97040   0.55504   0.00000  Uiso   1.00
O1728  O     0.78642   0.86378   0.78593   0.00000  Uiso   1.00
O1729  O     0.23751   0.14539   0.33783   0.00000  Uiso   1.00
O1730  O     0.23672   0.14904   0.08881   0.00000  Uiso   1.00
O1731  O     0.23643   0.19626   0.45913   0.00000  Uiso   1.00
O1732  O     0.23666   0.19455   0.21608   0.00000  Uiso   1.00
O1733  O     0.23864   0.15291   0.83597   0.00000  Uiso   1.00
O1734  O     0.23931   0.15111   0.58629   0.00000  Uiso   1.00
O1735  O     0.24085   0.19734   0.96393   0.00000  Uiso   1.00
O1736  O     0.23896   0.19900   0.70956   0.00000  Uiso   1.00
O1737  O     0.24148   0.48032   0.34270   0.00000  Uiso   1.00
O1738  O     0.23496   0.52699   0.46672   0.00000  Uiso   1.00
O1739  O     0.23604   0.48482   0.09249   0.00000  Uiso   1.00
O1740  O     0.24128   0.52881   0.21639   0.00000  Uiso   1.00
O1741  O     0.24238   0.52886   0.96497   0.00000  Uiso   1.00
O1742  O     0.24181   0.48285   0.59423   0.00000  Uiso   1.00
O1743  O     0.24368   0.48133   0.84148   0.00000  Uiso   1.00
O1744  O     0.24030   0.53305   0.71783   0.00000  Uiso   1.00
O1745  O     0.24204   0.86199   0.46719   0.00000  Uiso   1.00
O1746  O     0.24038   0.81615   0.34354   0.00000  Uiso   1.00
O1747  O     0.24166   0.81382   0.09534   0.00000  Uiso   1.00
O1748  O     0.24169   0.86104   0.22007   0.00000  Uiso   1.00
O1749  O     0.23714   0.86019   0.97147   0.00000  Uiso   1.00
O1750  O     0.24223   0.81443   0.84472   0.00000  Uiso   1.00
O1751  O     0.23941   0.81556   0.59383   0.00000  Uiso   1.00
O1752  O     0.24074   0.86304   0.71989   0.00000  Uiso   1.00
O1753  O     0.49312   0.03254   0.34214   0.00000  Uiso   1.00
O1754  O     0.49200   0.03161   0.09443   0.00000  Uiso   1.00
O1755  O     0.48975   0.02862   0.84241   0.00000  Uiso   1.00
O1756  O     0.49050   0.03348   0.59304   0.00000  Uiso   1.00
O1757  O     0.48918   0.31741   0.46650   0.00000  Uiso   1.00
O1758  O     0.48968   0.36197   0.34010   0.00000  Uiso   1.00
O1759  O     0.48726   0.31356   0.21455   0.00000  Uiso   1.00
O1760  O     0.49235   0.35974   0.08914   0.00000  Uiso   1.00
O1761  O     0.49080   0.36262   0.83767   0.00000  Uiso   1.00
O1762  O     0.48995   0.31786   0.71308   0.00000  Uiso   1.00
O1763  O     0.49013   0.31524   0.96249   0.00000  Uiso   1.00
O1764  O     0.49184   0.36666   0.58839   0.00000  Uiso   1.00
O1765  O     0.48890   0.69470   0.33850   0.00000  Uiso   1.00
O1766  O     0.48834   0.64818   0.46295   0.00000  Uiso   1.00
O1767  O     0.49240   0.69613   0.09000   0.00000  Uiso   1.00
O1768  O     0.49143   0.64813   0.21368   0.00000  Uiso   1.00
O1769  O     0.49169   0.64573   0.96495   0.00000  Uiso   1.00
O1770  O     0.49171   0.64619   0.71234   0.00000  Uiso   1.00
O1771  O     0.48989   0.69556   0.58962   0.00000  Uiso   1.00
O1772  O     0.48828   0.69320   0.83693   0.00000  Uiso   1.00
O1773  O     0.48374   0.98540   0.46766   0.00000  Uiso   1.00
O1774  O     0.48762   0.98306   0.21920   0.00000  Uiso   1.00
O1775  O     0.49387   0.98268   0.96825   0.00000  Uiso   1.00
O1776  O     0.48583   0.98441   0.71903   0.00000  Uiso   1.00
O1777  O     0.73960   0.14948   0.34140   0.00000  Uiso   1.00
O1778  O     0.73983   0.14954   0.08828   0.00000  Uiso   1.00
O1779  O     0.73808   0.19800   0.46653   0.00000  Uiso   1.00
O1780  O     0.74271   0.19482   0.21446   0.00000  Uiso   1.00
O1781  O     0.73939   0.19773   0.96705   0.00000  Uiso   1.00
O1782  O     0.73961   0.19908   0.71634   0.00000  Uiso   1.00
O1783  O     0.73621   0.14964   0.84166   0.00000  Uiso   1.00
O1784  O     0.73886   0.15171   0.59258   0.00000  Uiso   1.00
O1785  O     0.73756   0.53119   0.46499   0.00000  Uiso   1.00
O1786  O     0.73908   0.48167   0.09189   0.00000  Uiso   1.00
O1787  O     0.73963   0.52933   0.21568   0.00000  Uiso   1.00
O1788  O     0.73912   0.48276   0.34257   0.00000  Uiso   1.00
O1789  O     0.74235   0.52890   0.96777   0.00000  Uiso   1.00
O1790  O     0.73734   0.52729   0.71723   0.00000  Uiso   1.00
O1791  O     0.74218   0.47913   0.84220   0.00000  Uiso   1.00
O1792  O     0.73989   0.48281   0.59052   0.00000  Uiso   1.00
O1793  O     0.73904   0.86227   0.45743   0.00000  Uiso   1.00
O1794  O     0.74006   0.81301   0.08608   0.00000  Uiso   1.00
O1795  O     0.74104   0.86322   0.20802   0.00000  Uiso   1.00
O1796  O     0.73769   0.81339   0.33182   0.00000  Uiso   1.00
O1797  O     0.74204   0.81661   0.83045   0.00000  Uiso   1.00
O1798  O     0.73864   0.81812   0.58362   0.00000  Uiso   1.00
O1799  O     0.73824   0.86061   0.95878   0.00000  Uiso   1.00
O1800  O     0.74077   0.86556   0.70826   0.00000  Uiso   1.00
O1801  O     0.98808   0.02947   0.34118   0.00000  Uiso   1.00
O1802  O     0.98975   0.02846   0.08933   0.00000  Uiso   1.00
O1803  O     0.98938   0.03191   0.59013   0.00000  Uiso   1.00
O1804  O     0.99220   0.03254   0.84031   0.00000  Uiso   1.00
O1805  O     0.98971   0.36008   0.33964   0.00000  Uiso   1.00
O1806  O     0.98918   0.31583   0.21519   0.00000  Uiso   1.00
O1807  O     0.98815   0.31507   0.46593   0.00000  Uiso   1.00
O1808  O     0.99045   0.36520   0.08632   0.00000  Uiso   1.00
O1809  O     0.98648   0.31416   0.96278   0.00000  Uiso   1.00
O1810  O     0.99058   0.31993   0.71357   0.00000  Uiso   1.00
O1811  O     0.98814   0.36561   0.83981   0.00000  Uiso   1.00
O1812  O     0.98917   0.36543   0.58709   0.00000  Uiso   1.00
O1813  O     0.99193   0.65056   0.46593   0.00000  Uiso   1.00
O1814  O     0.98694   0.69551   0.33921   0.00000  Uiso   1.00
O1815  O     0.98819   0.64400   0.21627   0.00000  Uiso   1.00
O1816  O     0.98749   0.69116   0.09080   0.00000  Uiso   1.00
O1817  O     0.99463   0.69840   0.84333   0.00000  Uiso   1.00
O1818  O     0.98830   0.69872   0.59423   0.00000  Uiso   1.00
O1819  O     0.98764   0.65128   0.71873   0.00000  Uiso   1.00
O1820  O     0.98706   0.64600   0.96435   0.00000  Uiso   1.00
O1821  O     0.98909   0.98219   0.21508   0.00000  Uiso   1.00
O1822  O     0.98832   0.98362   0.46738   0.00000  Uiso   1.00
O1823  O     0.99035   0.98550   0.71373   0.00000  Uiso   1.00
O1824  O     0.99324   0.98300   0.96297   0.00000  Uiso   1.00
