data_final_Br-Co-SABVOH01
_audit_creation_date              2022-12-15
_audit_creation_method            'Materials Studio'
_symmetry_space_group_name_H-M    'P1'
_symmetry_Int_Tables_number       1
_symmetry_cell_setting            triclinic
loop_
_symmetry_equiv_pos_as_xyz
  x,y,z
_cell_length_a                    31.4597
_cell_length_b                    33.9996
_cell_length_c                    24.3426
_cell_angle_alpha                 90.0000
_cell_angle_beta                  90.0000
_cell_angle_gamma                 90.0000
loop_
_atom_site_label
_atom_site_type_symbol
_atom_site_fract_x
_atom_site_fract_y
_atom_site_fract_z
_atom_site_U_iso_or_equiv
_atom_site_adp_type
_atom_site_occupancy
Co1    Co    0.00008   0.00302   0.38096   0.00000  Uiso   1.00
Co2    Co    0.00005   0.00231   0.13078   0.00000  Uiso   1.00
Co3    Co    0.00038   0.00338   0.25705   0.00000  Uiso   1.00
Co4    Co    0.24828   0.16846   0.38153   0.00000  Uiso   1.00
Co5    Co    0.24962   0.16425   0.00578   0.00000  Uiso   1.00
Co6    Co    0.24976   0.16701   0.13209   0.00000  Uiso   1.00
Co7    Co    0.00269   0.00496   0.50668   0.00000  Uiso   1.00
Co8    Co    0.00140   0.00303   0.75510   0.00000  Uiso   1.00
Co9    Co    0.24798   0.16495   0.50628   0.00000  Uiso   1.00
Co10   Co    0.00213   0.00314   0.63032   0.00000  Uiso   1.00
Co11   Co    0.24913   0.16432   0.63069   0.00000  Uiso   1.00
Co12   Co    0.00073   0.33060   0.25537   0.00000  Uiso   1.00
Co13   Co    0.00257   0.33141   0.12949   0.00000  Uiso   1.00
Co14   Co    0.00409   0.33245   0.00500   0.00000  Uiso   1.00
Co15   Co    0.00057   0.33340   0.88091   0.00000  Uiso   1.00
Co16   Co    0.24888   0.49643   0.37359   0.00000  Uiso   1.00
Co17   Co    0.24934   0.49731   0.24861   0.00000  Uiso   1.00
Co18   Co    0.24991   0.49690   0.49938   0.00000  Uiso   1.00
Co19   Co    0.00052   0.66539   0.25712   0.00000  Uiso   1.00
Co20   Co    0.00079   0.66554   0.37946   0.00000  Uiso   1.00
Co21   Co    0.24914   0.83430   0.13172   0.00000  Uiso   1.00
Co22   Co    0.24986   0.83192   0.00669   0.00000  Uiso   1.00
Co23   Co    0.24902   0.83360   0.25576   0.00000  Uiso   1.00
Co24   Co    0.25016   0.16704   0.25636   0.00000  Uiso   1.00
Co25   Co    0.49835   0.00307   0.25628   0.00000  Uiso   1.00
Co26   Co    0.49789   0.00335   0.38092   0.00000  Uiso   1.00
Co27   Co    0.49755   0.00070   0.12938   0.00000  Uiso   1.00
Co28   Co    0.25062   0.16500   0.87976   0.00000  Uiso   1.00
Co29   Co    0.49760   0.00276   0.50585   0.00000  Uiso   1.00
Co30   Co    0.25090   0.16365   0.75605   0.00000  Uiso   1.00
Co31   Co    0.49872   0.33247   0.37505   0.00000  Uiso   1.00
Co32   Co    0.49971   0.33085   0.87523   0.00000  Uiso   1.00
Co33   Co    0.25242   0.49905   0.12447   0.00000  Uiso   1.00
Co34   Co    0.25006   0.49892   0.87283   0.00000  Uiso   1.00
Co35   Co    0.25161   0.49935   0.74834   0.00000  Uiso   1.00
Co36   Co    0.25200   0.49989   0.62343   0.00000  Uiso   1.00
Co37   Co    0.25167   0.49776   0.99847   0.00000  Uiso   1.00
Co38   Co    0.49926   0.66769   0.75498   0.00000  Uiso   1.00
Co39   Co    0.49876   0.66570   0.50542   0.00000  Uiso   1.00
Co40   Co    0.49916   0.66657   0.63042   0.00000  Uiso   1.00
Co41   Co    0.25051   0.83653   0.38209   0.00000  Uiso   1.00
Co42   Co    0.25066   0.83541   0.50671   0.00000  Uiso   1.00
Co43   Co    0.25080   0.83499   0.63203   0.00000  Uiso   1.00
Co44   Co    0.25171   0.83320   0.75868   0.00000  Uiso   1.00
Co45   Co    0.25201   0.83200   0.88193   0.00000  Uiso   1.00
Co46   Co    0.49942   0.99978   0.63195   0.00000  Uiso   1.00
Co47   Co    0.74884   0.16902   0.38116   0.00000  Uiso   1.00
Co48   Co    0.74816   0.16908   0.25572   0.00000  Uiso   1.00
Co49   Co    0.74802   0.16690   0.00837   0.00000  Uiso   1.00
Co50   Co    0.74724   0.16922   0.13220   0.00000  Uiso   1.00
Co51   Co    0.50103   0.00071   0.00550   0.00000  Uiso   1.00
Co52   Co    0.74916   0.16696   0.88302   0.00000  Uiso   1.00
Co53   Co    0.50107   0.33158   0.00157   0.00000  Uiso   1.00
Co54   Co    0.50036   0.33299   0.24956   0.00000  Uiso   1.00
Co55   Co    0.50065   0.33021   0.12423   0.00000  Uiso   1.00
Co56   Co    0.50141   0.33394   0.50010   0.00000  Uiso   1.00
Co57   Co    0.50070   0.33393   0.75080   0.00000  Uiso   1.00
Co58   Co    0.50083   0.33092   0.62626   0.00000  Uiso   1.00
Co59   Co    0.74925   0.50089   0.38222   0.00000  Uiso   1.00
Co60   Co    0.74919   0.50162   0.50620   0.00000  Uiso   1.00
Co61   Co    0.74954   0.49952   0.63127   0.00000  Uiso   1.00
Co62   Co    0.50042   0.66964   0.00560   0.00000  Uiso   1.00
Co63   Co    0.50140   0.66664   0.25412   0.00000  Uiso   1.00
Co64   Co    0.50003   0.66487   0.38074   0.00000  Uiso   1.00
Co65   Co    0.50039   0.66664   0.12873   0.00000  Uiso   1.00
Co66   Co    0.50046   0.66891   0.87923   0.00000  Uiso   1.00
Co67   Co    0.74959   0.83558   0.12767   0.00000  Uiso   1.00
Co68   Co    0.74839   0.83650   0.25266   0.00000  Uiso   1.00
Co69   Co    0.74790   0.83958   0.37639   0.00000  Uiso   1.00
Co70   Co    0.50114   0.99968   0.88221   0.00000  Uiso   1.00
Co71   Co    0.74976   0.83456   0.87598   0.00000  Uiso   1.00
Co72   Co    0.74944   0.83625   0.62492   0.00000  Uiso   1.00
Co73   Co    0.74960   0.83560   0.75030   0.00000  Uiso   1.00
Co74   Co    0.74805   0.83497   0.50002   0.00000  Uiso   1.00
Co75   Co    0.50086   0.99970   0.75758   0.00000  Uiso   1.00
Co76   Co    0.99917   0.00408   0.00563   0.00000  Uiso   1.00
Co77   Co    0.75146   0.16396   0.75950   0.00000  Uiso   1.00
Co78   Co    0.99905   0.00075   0.87989   0.00000  Uiso   1.00
Co79   Co    0.75083   0.16592   0.50513   0.00000  Uiso   1.00
Co80   Co    0.75016   0.16375   0.63204   0.00000  Uiso   1.00
Co81   Co    0.99931   0.32877   0.37960   0.00000  Uiso   1.00
Co82   Co    0.99992   0.33303   0.75443   0.00000  Uiso   1.00
Co83   Co    0.99976   0.33095   0.50462   0.00000  Uiso   1.00
Co84   Co    0.99994   0.33147   0.62828   0.00000  Uiso   1.00
Co85   Co    0.75033   0.49741   0.00772   0.00000  Uiso   1.00
Co86   Co    0.75051   0.49927   0.13323   0.00000  Uiso   1.00
Co87   Co    0.75011   0.49776   0.25820   0.00000  Uiso   1.00
Co88   Co    0.75164   0.49812   0.88194   0.00000  Uiso   1.00
Co89   Co    0.75003   0.49768   0.75661   0.00000  Uiso   1.00
Co90   Co    0.99783   0.66628   0.00442   0.00000  Uiso   1.00
Co91   Co    0.99735   0.66479   0.13077   0.00000  Uiso   1.00
Co92   Co    0.99719   0.66429   0.62771   0.00000  Uiso   1.00
Co93   Co    0.99748   0.66474   0.75382   0.00000  Uiso   1.00
Co94   Co    0.99797   0.66617   0.87843   0.00000  Uiso   1.00
Co95   Co    0.99950   0.66937   0.50237   0.00000  Uiso   1.00
Co96   Co    0.75129   0.83465   0.00152   0.00000  Uiso   1.00
Br97   Br    0.10204   0.14639   0.34203   0.00000  Uiso   1.00
Br98   Br    0.10521   0.14225   0.10071   0.00000  Uiso   1.00
Br99   Br    0.11172   0.14962   0.84374   0.00000  Uiso   1.00
Br100  Br    0.10251   0.13663   0.60242   0.00000  Uiso   1.00
Br101  Br    0.13968   0.31255   0.21418   0.00000  Uiso   1.00
Br102  Br    0.13958   0.30629   0.47536   0.00000  Uiso   1.00
Br103  Br    0.14285   0.31020   0.71426   0.00000  Uiso   1.00
Br104  Br    0.13972   0.30568   0.97721   0.00000  Uiso   1.00
Br105  Br    0.11104   0.48416   0.08680   0.00000  Uiso   1.00
Br106  Br    0.10353   0.47220   0.35650   0.00000  Uiso   1.00
Br107  Br    0.11555   0.48077   0.59118   0.00000  Uiso   1.00
Br108  Br    0.10819   0.48208   0.83518   0.00000  Uiso   1.00
Br109  Br    0.14523   0.63804   0.23558   0.00000  Uiso   1.00
Br110  Br    0.14400   0.65541   0.46053   0.00000  Uiso   1.00
Br111  Br    0.13679   0.64910   0.72604   0.00000  Uiso   1.00
Br112  Br    0.14144   0.64799   0.96778   0.00000  Uiso   1.00
Br113  Br    0.13995   0.98128   0.23001   0.00000  Uiso   1.00
Br114  Br    0.10668   0.81510   0.09938   0.00000  Uiso   1.00
Br115  Br    0.13884   0.97898   0.46930   0.00000  Uiso   1.00
Br116  Br    0.10322   0.81263   0.35051   0.00000  Uiso   1.00
Br117  Br    0.10854   0.81567   0.84921   0.00000  Uiso   1.00
Br118  Br    0.14098   0.98392   0.97092   0.00000  Uiso   1.00
Br119  Br    0.14641   0.98016   0.72161   0.00000  Uiso   1.00
Br120  Br    0.10540   0.81397   0.59975   0.00000  Uiso   1.00
Br121  Br    0.39505   0.18574   0.47483   0.00000  Uiso   1.00
Br122  Br    0.39241   0.19040   0.21627   0.00000  Uiso   1.00
Br123  Br    0.35741   0.02140   0.09270   0.00000  Uiso   1.00
Br124  Br    0.34973   0.02555   0.35005   0.00000  Uiso   1.00
Br125  Br    0.35426   0.02408   0.84943   0.00000  Uiso   1.00
Br126  Br    0.39295   0.18416   0.71175   0.00000  Uiso   1.00
Br127  Br    0.35681   0.02093   0.59787   0.00000  Uiso   1.00
Br128  Br    0.38874   0.18836   0.97052   0.00000  Uiso   1.00
Br129  Br    0.36127   0.35170   0.09025   0.00000  Uiso   1.00
Br130  Br    0.35700   0.35407   0.35086   0.00000  Uiso   1.00
Br131  Br    0.35554   0.34866   0.58831   0.00000  Uiso   1.00
Br132  Br    0.34996   0.34890   0.84504   0.00000  Uiso   1.00
Br133  Br    0.38759   0.51190   0.20818   0.00000  Uiso   1.00
Br134  Br    0.39486   0.51988   0.47094   0.00000  Uiso   1.00
Br135  Br    0.38820   0.51610   0.71443   0.00000  Uiso   1.00
Br136  Br    0.39598   0.51763   0.96761   0.00000  Uiso   1.00
Br137  Br    0.35374   0.68930   0.09703   0.00000  Uiso   1.00
Br138  Br    0.35249   0.68586   0.34307   0.00000  Uiso   1.00
Br139  Br    0.35992   0.68181   0.58796   0.00000  Uiso   1.00
Br140  Br    0.35672   0.69057   0.84717   0.00000  Uiso   1.00
Br141  Br    0.39137   0.85555   0.47136   0.00000  Uiso   1.00
Br142  Br    0.39873   0.85707   0.22868   0.00000  Uiso   1.00
Br143  Br    0.39190   0.85960   0.97968   0.00000  Uiso   1.00
Br144  Br    0.39135   0.85600   0.71195   0.00000  Uiso   1.00
Br145  Br    0.61362   0.14793   0.34240   0.00000  Uiso   1.00
Br146  Br    0.60369   0.13671   0.10398   0.00000  Uiso   1.00
Br147  Br    0.60654   0.14226   0.84954   0.00000  Uiso   1.00
Br148  Br    0.60996   0.14033   0.59659   0.00000  Uiso   1.00
Br149  Br    0.64738   0.31615   0.21992   0.00000  Uiso   1.00
Br150  Br    0.64766   0.30869   0.47537   0.00000  Uiso   1.00
Br151  Br    0.64464   0.31233   0.71872   0.00000  Uiso   1.00
Br152  Br    0.64586   0.30958   0.97393   0.00000  Uiso   1.00
Br153  Br    0.61485   0.48471   0.09153   0.00000  Uiso   1.00
Br154  Br    0.60316   0.47469   0.34906   0.00000  Uiso   1.00
Br155  Br    0.60652   0.48082   0.59551   0.00000  Uiso   1.00
Br156  Br    0.60764   0.48053   0.85269   0.00000  Uiso   1.00
Br157  Br    0.64767   0.64420   0.23034   0.00000  Uiso   1.00
Br158  Br    0.63973   0.64604   0.46842   0.00000  Uiso   1.00
Br159  Br    0.64075   0.64390   0.72132   0.00000  Uiso   1.00
Br160  Br    0.63969   0.65057   0.97013   0.00000  Uiso   1.00
Br161  Br    0.64080   0.98455   0.46159   0.00000  Uiso   1.00
Br162  Br    0.60451   0.80989   0.10760   0.00000  Uiso   1.00
Br163  Br    0.64466   0.97921   0.23056   0.00000  Uiso   1.00
Br164  Br    0.60195   0.81892   0.34826   0.00000  Uiso   1.00
Br165  Br    0.61022   0.82180   0.58713   0.00000  Uiso   1.00
Br166  Br    0.61166   0.81335   0.84425   0.00000  Uiso   1.00
Br167  Br    0.64313   0.97784   0.97531   0.00000  Uiso   1.00
Br168  Br    0.64437   0.97505   0.72898   0.00000  Uiso   1.00
Br169  Br    0.85749   0.02750   0.34716   0.00000  Uiso   1.00
Br170  Br    0.89258   0.19467   0.47441   0.00000  Uiso   1.00
Br171  Br    0.85549   0.02818   0.10470   0.00000  Uiso   1.00
Br172  Br    0.89625   0.19852   0.22514   0.00000  Uiso   1.00
Br173  Br    0.89619   0.19271   0.72495   0.00000  Uiso   1.00
Br174  Br    0.88773   0.18896   0.97512   0.00000  Uiso   1.00
Br175  Br    0.86225   0.01904   0.59169   0.00000  Uiso   1.00
Br176  Br    0.86120   0.01797   0.84450   0.00000  Uiso   1.00
Br177  Br    0.85990   0.35214   0.09638   0.00000  Uiso   1.00
Br178  Br    0.85722   0.35423   0.35012   0.00000  Uiso   1.00
Br179  Br    0.85133   0.35944   0.60898   0.00000  Uiso   1.00
Br180  Br    0.85638   0.35530   0.84639   0.00000  Uiso   1.00
Br181  Br    0.89091   0.51687   0.22733   0.00000  Uiso   1.00
Br182  Br    0.89886   0.51900   0.47199   0.00000  Uiso   1.00
Br183  Br    0.89314   0.51904   0.71721   0.00000  Uiso   1.00
Br184  Br    0.89635   0.52279   0.97497   0.00000  Uiso   1.00
Br185  Br    0.85873   0.68317   0.09318   0.00000  Uiso   1.00
Br186  Br    0.85759   0.68966   0.35447   0.00000  Uiso   1.00
Br187  Br    0.85756   0.68309   0.59323   0.00000  Uiso   1.00
Br188  Br    0.85010   0.68648   0.85550   0.00000  Uiso   1.00
Br189  Br    0.89464   0.85584   0.47088   0.00000  Uiso   1.00
Br190  Br    0.89576   0.84955   0.21549   0.00000  Uiso   1.00
Br191  Br    0.89238   0.85529   0.97554   0.00000  Uiso   1.00
Br192  Br    0.89141   0.84830   0.71014   0.00000  Uiso   1.00
H193   H     0.11638   0.04802   0.15466   0.00000  Uiso   1.00
H194   H     0.18262   0.08007   0.15730   0.00000  Uiso   1.00
H195   H     0.03024   0.04221   0.19321   0.00000  Uiso   1.00
H196   H     0.20513   0.04062   0.24357   0.00000  Uiso   1.00
H197   H     0.11113   0.05638   0.40836   0.00000  Uiso   1.00
H198   H     0.18388   0.07699   0.40968   0.00000  Uiso   1.00
H199   H     0.03258   0.04236   0.44588   0.00000  Uiso   1.00
H200   H     0.21305   0.03613   0.48401   0.00000  Uiso   1.00
H201   H     0.12891   0.19833   0.03169   0.00000  Uiso   1.00
H202   H     0.12223   0.04249   0.65556   0.00000  Uiso   1.00
H203   H     0.19631   0.06400   0.65660   0.00000  Uiso   1.00
H204   H     0.02645   0.04503   0.69381   0.00000  Uiso   1.00
H205   H     0.21047   0.04065   0.74389   0.00000  Uiso   1.00
H206   H     0.11528   0.04642   0.90069   0.00000  Uiso   1.00
H207   H     0.18025   0.07642   0.90495   0.00000  Uiso   1.00
H208   H     0.02766   0.04407   0.94259   0.00000  Uiso   1.00
H209   H     0.21334   0.03935   0.99774   0.00000  Uiso   1.00
H210   H     0.12962   0.19885   0.53384   0.00000  Uiso   1.00
H211   H     0.06278   0.22950   0.03574   0.00000  Uiso   1.00
H212   H     0.14150   0.22054   0.27387   0.00000  Uiso   1.00
H213   H     0.21810   0.20274   0.06944   0.00000  Uiso   1.00
H214   H     0.07481   0.25336   0.27783   0.00000  Uiso   1.00
H215   H     0.03006   0.36732   0.43923   0.00000  Uiso   1.00
H216   H     0.12113   0.37088   0.40683   0.00000  Uiso   1.00
H217   H     0.21457   0.20322   0.32022   0.00000  Uiso   1.00
H218   H     0.02763   0.37244   0.19568   0.00000  Uiso   1.00
H219   H     0.20464   0.37009   0.23212   0.00000  Uiso   1.00
H220   H     0.21477   0.36400   0.49763   0.00000  Uiso   1.00
H221   H     0.11722   0.38907   0.14643   0.00000  Uiso   1.00
H222   H     0.19076   0.39705   0.40643   0.00000  Uiso   1.00
H223   H     0.03410   0.20101   0.12712   0.00000  Uiso   1.00
H224   H     0.03963   0.20865   0.36564   0.00000  Uiso   1.00
H225   H     0.11036   0.38060   0.64659   0.00000  Uiso   1.00
H226   H     0.22506   0.20497   0.81452   0.00000  Uiso   1.00
H227   H     0.07000   0.24078   0.53237   0.00000  Uiso   1.00
H228   H     0.02764   0.37318   0.69214   0.00000  Uiso   1.00
H229   H     0.07400   0.25259   0.77788   0.00000  Uiso   1.00
H230   H     0.03862   0.20116   0.62058   0.00000  Uiso   1.00
H231   H     0.03194   0.37536   0.94091   0.00000  Uiso   1.00
H232   H     0.20854   0.36942   0.73547   0.00000  Uiso   1.00
H233   H     0.04559   0.20868   0.86369   0.00000  Uiso   1.00
H234   H     0.12150   0.37022   0.90099   0.00000  Uiso   1.00
H235   H     0.13895   0.21514   0.77543   0.00000  Uiso   1.00
H236   H     0.21500   0.20049   0.56864   0.00000  Uiso   1.00
H237   H     0.20827   0.36619   0.98819   0.00000  Uiso   1.00
H238   H     0.04089   0.53879   0.11439   0.00000  Uiso   1.00
H239   H     0.13406   0.54988   0.02125   0.00000  Uiso   1.00
H240   H     0.22248   0.53736   0.06093   0.00000  Uiso   1.00
H241   H     0.03586   0.53418   0.37685   0.00000  Uiso   1.00
H242   H     0.06936   0.57013   0.27916   0.00000  Uiso   1.00
H243   H     0.13313   0.54132   0.27406   0.00000  Uiso   1.00
H244   H     0.21664   0.53494   0.30888   0.00000  Uiso   1.00
H245   H     0.06576   0.57979   0.02816   0.00000  Uiso   1.00
H246   H     0.18587   0.41447   0.15026   0.00000  Uiso   1.00
H247   H     0.04095   0.53965   0.61159   0.00000  Uiso   1.00
H248   H     0.17688   0.41244   0.65645   0.00000  Uiso   1.00
H249   H     0.14508   0.55733   0.51896   0.00000  Uiso   1.00
H250   H     0.22106   0.53854   0.56137   0.00000  Uiso   1.00
H251   H     0.03414   0.53811   0.86232   0.00000  Uiso   1.00
H252   H     0.13561   0.54578   0.77319   0.00000  Uiso   1.00
H253   H     0.06739   0.57246   0.78212   0.00000  Uiso   1.00
H254   H     0.22245   0.53664   0.81102   0.00000  Uiso   1.00
H255   H     0.18546   0.40574   0.89934   0.00000  Uiso   1.00
H256   H     0.07690   0.58722   0.52770   0.00000  Uiso   1.00
H257   H     0.11209   0.70930   0.15709   0.00000  Uiso   1.00
H258   H     0.18036   0.74028   0.15780   0.00000  Uiso   1.00
H259   H     0.02523   0.70400   0.19238   0.00000  Uiso   1.00
H260   H     0.21206   0.69865   0.24669   0.00000  Uiso   1.00
H261   H     0.10983   0.72381   0.39790   0.00000  Uiso   1.00
H262   H     0.17265   0.75558   0.40078   0.00000  Uiso   1.00
H263   H     0.02758   0.70986   0.43866   0.00000  Uiso   1.00
H264   H     0.21299   0.70432   0.49305   0.00000  Uiso   1.00
H265   H     0.11234   0.71462   0.65507   0.00000  Uiso   1.00
H266   H     0.17876   0.74445   0.65745   0.00000  Uiso   1.00
H267   H     0.02249   0.70570   0.69052   0.00000  Uiso   1.00
H268   H     0.20798   0.70959   0.74022   0.00000  Uiso   1.00
H269   H     0.11394   0.71321   0.90079   0.00000  Uiso   1.00
H270   H     0.17718   0.74559   0.90816   0.00000  Uiso   1.00
H271   H     0.01909   0.70777   0.94064   0.00000  Uiso   1.00
H272   H     0.20469   0.71344   0.98972   0.00000  Uiso   1.00
H273   H     0.04247   0.87196   0.12016   0.00000  Uiso   1.00
H274   H     0.14113   0.88389   0.02736   0.00000  Uiso   1.00
H275   H     0.07296   0.91838   0.02834   0.00000  Uiso   1.00
H276   H     0.22252   0.87380   0.06951   0.00000  Uiso   1.00
H277   H     0.03479   0.87202   0.36823   0.00000  Uiso   1.00
H278   H     0.13962   0.88414   0.27653   0.00000  Uiso   1.00
H279   H     0.06893   0.91143   0.28530   0.00000  Uiso   1.00
H280   H     0.22358   0.87643   0.31917   0.00000  Uiso   1.00
H281   H     0.03729   0.87389   0.62935   0.00000  Uiso   1.00
H282   H     0.13855   0.88939   0.52600   0.00000  Uiso   1.00
H283   H     0.06606   0.91839   0.53407   0.00000  Uiso   1.00
H284   H     0.22182   0.87548   0.57159   0.00000  Uiso   1.00
H285   H     0.04627   0.87806   0.86658   0.00000  Uiso   1.00
H286   H     0.14244   0.88666   0.77921   0.00000  Uiso   1.00
H287   H     0.07383   0.91579   0.78395   0.00000  Uiso   1.00
H288   H     0.22753   0.87381   0.82155   0.00000  Uiso   1.00
H289   H     0.46039   0.13026   0.23918   0.00000  Uiso   1.00
H290   H     0.36491   0.12060   0.15446   0.00000  Uiso   1.00
H291   H     0.43685   0.09455   0.15671   0.00000  Uiso   1.00
H292   H     0.28006   0.12802   0.19363   0.00000  Uiso   1.00
H293   H     0.36475   0.12294   0.40191   0.00000  Uiso   1.00
H294   H     0.42816   0.09026   0.40079   0.00000  Uiso   1.00
H295   H     0.27797   0.12773   0.44203   0.00000  Uiso   1.00
H296   H     0.46060   0.13021   0.49335   0.00000  Uiso   1.00
H297   H     0.46128   0.12642   0.73554   0.00000  Uiso   1.00
H298   H     0.36258   0.11509   0.65033   0.00000  Uiso   1.00
H299   H     0.43093   0.08963   0.65568   0.00000  Uiso   1.00
H300   H     0.28097   0.12587   0.69301   0.00000  Uiso   1.00
H301   H     0.36487   0.11855   0.90170   0.00000  Uiso   1.00
H302   H     0.43332   0.09059   0.90428   0.00000  Uiso   1.00
H303   H     0.27939   0.12594   0.94326   0.00000  Uiso   1.00
H304   H     0.45113   0.12015   0.98465   0.00000  Uiso   1.00
H305   H     0.39046   0.27903   0.02168   0.00000  Uiso   1.00
H306   H     0.32745   0.24426   0.02899   0.00000  Uiso   1.00
H307   H     0.46902   0.29007   0.06322   0.00000  Uiso   1.00
H308   H     0.29127   0.28910   0.11189   0.00000  Uiso   1.00
H309   H     0.39070   0.28673   0.27599   0.00000  Uiso   1.00
H310   H     0.32914   0.24590   0.27107   0.00000  Uiso   1.00
H311   H     0.47327   0.29134   0.31738   0.00000  Uiso   1.00
H312   H     0.28600   0.29761   0.37668   0.00000  Uiso   1.00
H313   H     0.39193   0.27511   0.52296   0.00000  Uiso   1.00
H314   H     0.32395   0.24496   0.53158   0.00000  Uiso   1.00
H315   H     0.47574   0.29070   0.56234   0.00000  Uiso   1.00
H316   H     0.29770   0.28418   0.61187   0.00000  Uiso   1.00
H317   H     0.39206   0.27947   0.76869   0.00000  Uiso   1.00
H318   H     0.31997   0.25144   0.78162   0.00000  Uiso   1.00
H319   H     0.47259   0.29249   0.81119   0.00000  Uiso   1.00
H320   H     0.28250   0.29539   0.87489   0.00000  Uiso   1.00
H321   H     0.46444   0.46390   0.49690   0.00000  Uiso   1.00
H322   H     0.45482   0.45650   0.23353   0.00000  Uiso   1.00
H323   H     0.36009   0.44018   0.14296   0.00000  Uiso   1.00
H324   H     0.28260   0.45876   0.18584   0.00000  Uiso   1.00
H325   H     0.42775   0.41269   0.14833   0.00000  Uiso   1.00
H326   H     0.32114   0.58583   0.02676   0.00000  Uiso   1.00
H327   H     0.36910   0.45549   0.40561   0.00000  Uiso   1.00
H328   H     0.27574   0.45247   0.43749   0.00000  Uiso   1.00
H329   H     0.43346   0.42297   0.40347   0.00000  Uiso   1.00
H330   H     0.32913   0.57655   0.27405   0.00000  Uiso   1.00
H331   H     0.32262   0.58315   0.78152   0.00000  Uiso   1.00
H332   H     0.46712   0.46586   0.74220   0.00000  Uiso   1.00
H333   H     0.42461   0.40677   0.64683   0.00000  Uiso   1.00
H334   H     0.35495   0.43821   0.64083   0.00000  Uiso   1.00
H335   H     0.27622   0.45925   0.68931   0.00000  Uiso   1.00
H336   H     0.36437   0.44108   0.89421   0.00000  Uiso   1.00
H337   H     0.28039   0.46023   0.93569   0.00000  Uiso   1.00
H338   H     0.43454   0.41852   0.90231   0.00000  Uiso   1.00
H339   H     0.31946   0.58570   0.52569   0.00000  Uiso   1.00
H340   H     0.46802   0.46594   0.99915   0.00000  Uiso   1.00
H341   H     0.47613   0.62593   0.06673   0.00000  Uiso   1.00
H342   H     0.36622   0.78967   0.40429   0.00000  Uiso   1.00
H343   H     0.43072   0.75464   0.15474   0.00000  Uiso   1.00
H344   H     0.47123   0.62949   0.31624   0.00000  Uiso   1.00
H345   H     0.29506   0.61847   0.35683   0.00000  Uiso   1.00
H346   H     0.28204   0.79860   0.44590   0.00000  Uiso   1.00
H347   H     0.43376   0.75021   0.40944   0.00000  Uiso   1.00
H348   H     0.28957   0.63096   0.11809   0.00000  Uiso   1.00
H349   H     0.38949   0.61489   0.27217   0.00000  Uiso   1.00
H350   H     0.46401   0.79712   0.24224   0.00000  Uiso   1.00
H351   H     0.45852   0.79550   0.49409   0.00000  Uiso   1.00
H352   H     0.36601   0.78603   0.15601   0.00000  Uiso   1.00
H353   H     0.38428   0.62212   0.02411   0.00000  Uiso   1.00
H354   H     0.27180   0.79139   0.19461   0.00000  Uiso   1.00
H355   H     0.46833   0.62962   0.56535   0.00000  Uiso   1.00
H356   H     0.38702   0.61678   0.51753   0.00000  Uiso   1.00
H357   H     0.43248   0.75524   0.65600   0.00000  Uiso   1.00
H358   H     0.47534   0.62642   0.81790   0.00000  Uiso   1.00
H359   H     0.29292   0.62048   0.86280   0.00000  Uiso   1.00
H360   H     0.36497   0.78833   0.65286   0.00000  Uiso   1.00
H361   H     0.43899   0.77069   0.90629   0.00000  Uiso   1.00
H362   H     0.28755   0.63118   0.62115   0.00000  Uiso   1.00
H363   H     0.45778   0.79260   0.73414   0.00000  Uiso   1.00
H364   H     0.37169   0.79725   0.90326   0.00000  Uiso   1.00
H365   H     0.38836   0.62069   0.77853   0.00000  Uiso   1.00
H366   H     0.45390   0.79740   0.98960   0.00000  Uiso   1.00
H367   H     0.28108   0.79524   0.69598   0.00000  Uiso   1.00
H368   H     0.28155   0.79271   0.94222   0.00000  Uiso   1.00
H369   H     0.38683   0.95485   0.03179   0.00000  Uiso   1.00
H370   H     0.32264   0.91648   0.03395   0.00000  Uiso   1.00
H371   H     0.46841   0.96431   0.06699   0.00000  Uiso   1.00
H372   H     0.29268   0.95666   0.11382   0.00000  Uiso   1.00
H373   H     0.38603   0.95711   0.27985   0.00000  Uiso   1.00
H374   H     0.31693   0.92492   0.28553   0.00000  Uiso   1.00
H375   H     0.46855   0.96286   0.32053   0.00000  Uiso   1.00
H376   H     0.28504   0.96497   0.37307   0.00000  Uiso   1.00
H377   H     0.39372   0.94813   0.52310   0.00000  Uiso   1.00
H378   H     0.32485   0.91701   0.52910   0.00000  Uiso   1.00
H379   H     0.46663   0.96506   0.56784   0.00000  Uiso   1.00
H380   H     0.28739   0.96711   0.62594   0.00000  Uiso   1.00
H381   H     0.38497   0.95612   0.78244   0.00000  Uiso   1.00
H382   H     0.31866   0.92546   0.78716   0.00000  Uiso   1.00
H383   H     0.47318   0.96142   0.81947   0.00000  Uiso   1.00
H384   H     0.29322   0.95739   0.86889   0.00000  Uiso   1.00
H385   H     0.61684   0.04132   0.16222   0.00000  Uiso   1.00
H386   H     0.68960   0.06886   0.16389   0.00000  Uiso   1.00
H387   H     0.52549   0.04180   0.19150   0.00000  Uiso   1.00
H388   H     0.71217   0.03924   0.24778   0.00000  Uiso   1.00
H389   H     0.60565   0.05750   0.40183   0.00000  Uiso   1.00
H390   H     0.67566   0.08835   0.40841   0.00000  Uiso   1.00
H391   H     0.52984   0.03949   0.44449   0.00000  Uiso   1.00
H392   H     0.71185   0.03811   0.48722   0.00000  Uiso   1.00
H393   H     0.53718   0.19933   0.12141   0.00000  Uiso   1.00
H394   H     0.62004   0.03709   0.65476   0.00000  Uiso   1.00
H395   H     0.68598   0.07164   0.65597   0.00000  Uiso   1.00
H396   H     0.71009   0.03586   0.73991   0.00000  Uiso   1.00
H397   H     0.61874   0.04105   0.90822   0.00000  Uiso   1.00
H398   H     0.67556   0.07753   0.90737   0.00000  Uiso   1.00
H399   H     0.52951   0.03788   0.94242   0.00000  Uiso   1.00
H400   H     0.54034   0.19886   0.86354   0.00000  Uiso   1.00
H401   H     0.52913   0.03834   0.69264   0.00000  Uiso   1.00
H402   H     0.70982   0.03694   0.99451   0.00000  Uiso   1.00
H403   H     0.72319   0.21167   0.31831   0.00000  Uiso   1.00
H404   H     0.61144   0.38118   0.40353   0.00000  Uiso   1.00
H405   H     0.63309   0.21040   0.03098   0.00000  Uiso   1.00
H406   H     0.56802   0.24109   0.02996   0.00000  Uiso   1.00
H407   H     0.53071   0.37105   0.19039   0.00000  Uiso   1.00
H408   H     0.71088   0.37369   0.24830   0.00000  Uiso   1.00
H409   H     0.56944   0.25101   0.27815   0.00000  Uiso   1.00
H410   H     0.52420   0.37553   0.43603   0.00000  Uiso   1.00
H411   H     0.60773   0.38335   0.15531   0.00000  Uiso   1.00
H412   H     0.71823   0.20701   0.07068   0.00000  Uiso   1.00
H413   H     0.54539   0.20584   0.36145   0.00000  Uiso   1.00
H414   H     0.63757   0.21988   0.27362   0.00000  Uiso   1.00
H415   H     0.71512   0.36782   0.00028   0.00000  Uiso   1.00
H416   H     0.63085   0.20625   0.78098   0.00000  Uiso   1.00
H417   H     0.54320   0.20345   0.61606   0.00000  Uiso   1.00
H418   H     0.57383   0.24728   0.52517   0.00000  Uiso   1.00
H419   H     0.52756   0.37437   0.68948   0.00000  Uiso   1.00
H420   H     0.71102   0.36911   0.74230   0.00000  Uiso   1.00
H421   H     0.57371   0.24830   0.77594   0.00000  Uiso   1.00
H422   H     0.53331   0.36654   0.93603   0.00000  Uiso   1.00
H423   H     0.71992   0.20509   0.81714   0.00000  Uiso   1.00
H424   H     0.61665   0.37313   0.90586   0.00000  Uiso   1.00
H425   H     0.61405   0.37902   0.64820   0.00000  Uiso   1.00
H426   H     0.72103   0.20361   0.57196   0.00000  Uiso   1.00
H427   H     0.63302   0.20818   0.53215   0.00000  Uiso   1.00
H428   H     0.71933   0.36960   0.50048   0.00000  Uiso   1.00
H429   H     0.54006   0.53844   0.11512   0.00000  Uiso   1.00
H430   H     0.64475   0.55256   0.02849   0.00000  Uiso   1.00
H431   H     0.72362   0.54001   0.07023   0.00000  Uiso   1.00
H432   H     0.53092   0.53403   0.37154   0.00000  Uiso   1.00
H433   H     0.63636   0.54232   0.28138   0.00000  Uiso   1.00
H434   H     0.72378   0.53991   0.31873   0.00000  Uiso   1.00
H435   H     0.56907   0.57545   0.28019   0.00000  Uiso   1.00
H436   H     0.58453   0.59489   0.02618   0.00000  Uiso   1.00
H437   H     0.67329   0.41436   0.16209   0.00000  Uiso   1.00
H438   H     0.67588   0.41249   0.40971   0.00000  Uiso   1.00
H439   H     0.54743   0.54775   0.61298   0.00000  Uiso   1.00
H440   H     0.63516   0.54649   0.52605   0.00000  Uiso   1.00
H441   H     0.72159   0.54074   0.56943   0.00000  Uiso   1.00
H442   H     0.53921   0.53916   0.87493   0.00000  Uiso   1.00
H443   H     0.56654   0.57494   0.78197   0.00000  Uiso   1.00
H444   H     0.63263   0.53997   0.78020   0.00000  Uiso   1.00
H445   H     0.57402   0.58310   0.52984   0.00000  Uiso   1.00
H446   H     0.72143   0.53501   0.81998   0.00000  Uiso   1.00
H447   H     0.67623   0.41389   0.65502   0.00000  Uiso   1.00
H448   H     0.68710   0.40250   0.91171   0.00000  Uiso   1.00
H449   H     0.61292   0.71063   0.16120   0.00000  Uiso   1.00
H450   H     0.67450   0.74762   0.15919   0.00000  Uiso   1.00
H451   H     0.52653   0.70643   0.19136   0.00000  Uiso   1.00
H452   H     0.70891   0.71035   0.24363   0.00000  Uiso   1.00
H453   H     0.61195   0.71727   0.40307   0.00000  Uiso   1.00
H454   H     0.67245   0.75545   0.40433   0.00000  Uiso   1.00
H455   H     0.52779   0.70316   0.44332   0.00000  Uiso   1.00
H456   H     0.70673   0.70636   0.48905   0.00000  Uiso   1.00
H457   H     0.60945   0.71838   0.64709   0.00000  Uiso   1.00
H458   H     0.67695   0.75040   0.64919   0.00000  Uiso   1.00
H459   H     0.52365   0.70884   0.69278   0.00000  Uiso   1.00
H460   H     0.71375   0.70037   0.74228   0.00000  Uiso   1.00
H461   H     0.61316   0.71713   0.90012   0.00000  Uiso   1.00
H462   H     0.68575   0.74421   0.90241   0.00000  Uiso   1.00
H463   H     0.52882   0.70971   0.94366   0.00000  Uiso   1.00
H464   H     0.70620   0.71148   0.99438   0.00000  Uiso   1.00
H465   H     0.53298   0.87079   0.12427   0.00000  Uiso   1.00
H466   H     0.63148   0.87296   0.02898   0.00000  Uiso   1.00
H467   H     0.57204   0.91205   0.02886   0.00000  Uiso   1.00
H468   H     0.72353   0.87466   0.06528   0.00000  Uiso   1.00
H469   H     0.53399   0.87414   0.37344   0.00000  Uiso   1.00
H470   H     0.63912   0.89265   0.27059   0.00000  Uiso   1.00
H471   H     0.56838   0.92149   0.28000   0.00000  Uiso   1.00
H472   H     0.71759   0.87884   0.31179   0.00000  Uiso   1.00
H473   H     0.54037   0.88015   0.61437   0.00000  Uiso   1.00
H474   H     0.64267   0.89562   0.51708   0.00000  Uiso   1.00
H475   H     0.57289   0.92452   0.52833   0.00000  Uiso   1.00
H476   H     0.71787   0.87428   0.56520   0.00000  Uiso   1.00
H477   H     0.54115   0.87438   0.86284   0.00000  Uiso   1.00
H478   H     0.63302   0.88088   0.77931   0.00000  Uiso   1.00
H479   H     0.56287   0.90352   0.78470   0.00000  Uiso   1.00
H480   H     0.72288   0.87432   0.81333   0.00000  Uiso   1.00
H481   H     0.96019   0.13382   0.23791   0.00000  Uiso   1.00
H482   H     0.85845   0.11923   0.15273   0.00000  Uiso   1.00
H483   H     0.92602   0.09139   0.15797   0.00000  Uiso   1.00
H484   H     0.77450   0.12764   0.19285   0.00000  Uiso   1.00
H485   H     0.78509   0.13287   0.44207   0.00000  Uiso   1.00
H486   H     0.86329   0.12633   0.40157   0.00000  Uiso   1.00
H487   H     0.92827   0.09334   0.40455   0.00000  Uiso   1.00
H488   H     0.96054   0.13445   0.49453   0.00000  Uiso   1.00
H489   H     0.96396   0.13132   0.74503   0.00000  Uiso   1.00
H490   H     0.86481   0.12446   0.65583   0.00000  Uiso   1.00
H491   H     0.93482   0.09583   0.66081   0.00000  Uiso   1.00
H492   H     0.78905   0.12786   0.69433   0.00000  Uiso   1.00
H493   H     0.86531   0.11780   0.89973   0.00000  Uiso   1.00
H494   H     0.92906   0.08429   0.90235   0.00000  Uiso   1.00
H495   H     0.78616   0.13375   0.94535   0.00000  Uiso   1.00
H496   H     0.96136   0.12976   0.99338   0.00000  Uiso   1.00
H497   H     0.88698   0.28535   0.02798   0.00000  Uiso   1.00
H498   H     0.82023   0.25424   0.02975   0.00000  Uiso   1.00
H499   H     0.97633   0.28898   0.06601   0.00000  Uiso   1.00
H500   H     0.79627   0.28877   0.11033   0.00000  Uiso   1.00
H501   H     0.88001   0.28880   0.27971   0.00000  Uiso   1.00
H502   H     0.80998   0.26624   0.28266   0.00000  Uiso   1.00
H503   H     0.96974   0.29047   0.31481   0.00000  Uiso   1.00
H504   H     0.79200   0.29473   0.37052   0.00000  Uiso   1.00
H505   H     0.88123   0.29430   0.53782   0.00000  Uiso   1.00
H506   H     0.81660   0.25794   0.54048   0.00000  Uiso   1.00
H507   H     0.96959   0.29112   0.56723   0.00000  Uiso   1.00
H508   H     0.78973   0.29672   0.61728   0.00000  Uiso   1.00
H509   H     0.88537   0.28688   0.78200   0.00000  Uiso   1.00
H510   H     0.81944   0.25085   0.78395   0.00000  Uiso   1.00
H511   H     0.97019   0.29525   0.81999   0.00000  Uiso   1.00
H512   H     0.78343   0.29804   0.87283   0.00000  Uiso   1.00
H513   H     0.95773   0.45936   0.24809   0.00000  Uiso   1.00
H514   H     0.86559   0.45572   0.14887   0.00000  Uiso   1.00
H515   H     0.77718   0.45664   0.19843   0.00000  Uiso   1.00
H516   H     0.86238   0.44808   0.40583   0.00000  Uiso   1.00
H517   H     0.77735   0.46425   0.44422   0.00000  Uiso   1.00
H518   H     0.82672   0.58403   0.28574   0.00000  Uiso   1.00
H519   H     0.93029   0.41537   0.40964   0.00000  Uiso   1.00
H520   H     0.93034   0.42439   0.15989   0.00000  Uiso   1.00
H521   H     0.95937   0.45485   0.49107   0.00000  Uiso   1.00
H522   H     0.82544   0.57737   0.02991   0.00000  Uiso   1.00
H523   H     0.81093   0.59249   0.78634   0.00000  Uiso   1.00
H524   H     0.95275   0.45459   0.73226   0.00000  Uiso   1.00
H525   H     0.86423   0.45306   0.65462   0.00000  Uiso   1.00
H526   H     0.78320   0.46088   0.69491   0.00000  Uiso   1.00
H527   H     0.93013   0.41684   0.65469   0.00000  Uiso   1.00
H528   H     0.87192   0.45381   0.90737   0.00000  Uiso   1.00
H529   H     0.77677   0.45652   0.94557   0.00000  Uiso   1.00
H530   H     0.93895   0.42736   0.90267   0.00000  Uiso   1.00
H531   H     0.82045   0.58231   0.52650   0.00000  Uiso   1.00
H532   H     0.96008   0.45721   0.99111   0.00000  Uiso   1.00
H533   H     0.96608   0.62741   0.06808   0.00000  Uiso   1.00
H534   H     0.88871   0.62243   0.28298   0.00000  Uiso   1.00
H535   H     0.92553   0.75044   0.15780   0.00000  Uiso   1.00
H536   H     0.77743   0.79545   0.19010   0.00000  Uiso   1.00
H537   H     0.97227   0.62865   0.31992   0.00000  Uiso   1.00
H538   H     0.78695   0.63682   0.37405   0.00000  Uiso   1.00
H539   H     0.89282   0.61425   0.02425   0.00000  Uiso   1.00
H540   H     0.92314   0.75009   0.40779   0.00000  Uiso   1.00
H541   H     0.79125   0.62929   0.12127   0.00000  Uiso   1.00
H542   H     0.86393   0.79383   0.40520   0.00000  Uiso   1.00
H543   H     0.95553   0.78822   0.24262   0.00000  Uiso   1.00
H544   H     0.85831   0.78000   0.14734   0.00000  Uiso   1.00
H545   H     0.77838   0.79679   0.43652   0.00000  Uiso   1.00
H546   H     0.95691   0.79456   0.48945   0.00000  Uiso   1.00
H547   H     0.96588   0.79988   0.00234   0.00000  Uiso   1.00
H548   H     0.96603   0.62521   0.56187   0.00000  Uiso   1.00
H549   H     0.88803   0.61297   0.52356   0.00000  Uiso   1.00
H550   H     0.91658   0.74721   0.64783   0.00000  Uiso   1.00
H551   H     0.97118   0.62574   0.81441   0.00000  Uiso   1.00
H552   H     0.79012   0.62207   0.61107   0.00000  Uiso   1.00
H553   H     0.92586   0.75534   0.90401   0.00000  Uiso   1.00
H554   H     0.88062   0.61548   0.77424   0.00000  Uiso   1.00
H555   H     0.79161   0.62248   0.86920   0.00000  Uiso   1.00
H556   H     0.77891   0.79563   0.68654   0.00000  Uiso   1.00
H557   H     0.85627   0.78295   0.64473   0.00000  Uiso   1.00
H558   H     0.78101   0.79405   0.94028   0.00000  Uiso   1.00
H559   H     0.95921   0.79330   0.73737   0.00000  Uiso   1.00
H560   H     0.86471   0.79300   0.89795   0.00000  Uiso   1.00
H561   H     0.97107   0.96550   0.06202   0.00000  Uiso   1.00
H562   H     0.88035   0.95882   0.03007   0.00000  Uiso   1.00
H563   H     0.81165   0.93140   0.03607   0.00000  Uiso   1.00
H564   H     0.79205   0.96504   0.11769   0.00000  Uiso   1.00
H565   H     0.88082   0.95854   0.28283   0.00000  Uiso   1.00
H566   H     0.82378   0.91606   0.27529   0.00000  Uiso   1.00
H567   H     0.97173   0.96173   0.31921   0.00000  Uiso   1.00
H568   H     0.79064   0.97003   0.37514   0.00000  Uiso   1.00
H569   H     0.89608   0.95287   0.52500   0.00000  Uiso   1.00
H570   H     0.83129   0.91537   0.52535   0.00000  Uiso   1.00
H571   H     0.97100   0.96573   0.56579   0.00000  Uiso   1.00
H572   H     0.79216   0.95692   0.61103   0.00000  Uiso   1.00
H573   H     0.88694   0.95192   0.77409   0.00000  Uiso   1.00
H574   H     0.81708   0.92459   0.78135   0.00000  Uiso   1.00
H575   H     0.97180   0.96139   0.81767   0.00000  Uiso   1.00
H576   H     0.78963   0.96214   0.86311   0.00000  Uiso   1.00
C577   C     0.16955   0.17520   0.44401   0.00000  Uiso   1.00
C578   C     0.17369   0.17660   0.19437   0.00000  Uiso   1.00
C579   C     0.13639   0.04230   0.12294   0.00000  Uiso   1.00
C580   C     0.17411   0.06121   0.12297   0.00000  Uiso   1.00
C581   C     0.15178   0.02119   0.02907   0.00000  Uiso   1.00
C582   C     0.19052   0.04019   0.03111   0.00000  Uiso   1.00
C583   C     0.09419   0.18308   0.39963   0.00000  Uiso   1.00
C584   C     0.12338   0.02220   0.07476   0.00000  Uiso   1.00
C585   C     0.23051   0.09718   0.07184   0.00000  Uiso   1.00
C586   C     0.20017   0.06394   0.07720   0.00000  Uiso   1.00
C587   C     0.13278   0.05029   0.37290   0.00000  Uiso   1.00
C588   C     0.17454   0.06243   0.37350   0.00000  Uiso   1.00
C589   C     0.14842   0.02313   0.28203   0.00000  Uiso   1.00
C590   C     0.18654   0.04287   0.27855   0.00000  Uiso   1.00
C591   C     0.07641   0.01340   0.06984   0.00000  Uiso   1.00
C592   C     0.11960   0.03196   0.32306   0.00000  Uiso   1.00
C593   C     0.22827   0.09855   0.31982   0.00000  Uiso   1.00
C594   C     0.19916   0.06450   0.32373   0.00000  Uiso   1.00
C595   C     0.12992   0.18945   0.19806   0.00000  Uiso   1.00
C596   C     0.07456   0.02201   0.31875   0.00000  Uiso   1.00
C597   C     0.09784   0.18198   0.15699   0.00000  Uiso   1.00
C598   C     0.12332   0.18342   0.44575   0.00000  Uiso   1.00
C599   C     0.12624   0.18387   0.69808   0.00000  Uiso   1.00
C600   C     0.10045   0.18541   0.90237   0.00000  Uiso   1.00
C601   C     0.09620   0.17935   0.65503   0.00000  Uiso   1.00
C602   C     0.17188   0.17251   0.69435   0.00000  Uiso   1.00
C603   C     0.14158   0.03855   0.61778   0.00000  Uiso   1.00
C604   C     0.18381   0.05003   0.61961   0.00000  Uiso   1.00
C605   C     0.15398   0.01441   0.52431   0.00000  Uiso   1.00
C606   C     0.19250   0.03685   0.52213   0.00000  Uiso   1.00
C607   C     0.07916   0.01334   0.56742   0.00000  Uiso   1.00
C608   C     0.12521   0.02215   0.56888   0.00000  Uiso   1.00
C609   C     0.23221   0.09313   0.56617   0.00000  Uiso   1.00
C610   C     0.20487   0.05802   0.57040   0.00000  Uiso   1.00
C611   C     0.13803   0.03992   0.86915   0.00000  Uiso   1.00
C612   C     0.17583   0.05815   0.87180   0.00000  Uiso   1.00
C613   C     0.15154   0.01762   0.77813   0.00000  Uiso   1.00
C614   C     0.18993   0.03886   0.77841   0.00000  Uiso   1.00
C615   C     0.07804   0.00961   0.82015   0.00000  Uiso   1.00
C616   C     0.12384   0.02133   0.82201   0.00000  Uiso   1.00
C617   C     0.23241   0.09412   0.82046   0.00000  Uiso   1.00
C618   C     0.20163   0.06122   0.82611   0.00000  Uiso   1.00
C619   C     0.12809   0.18456   0.94609   0.00000  Uiso   1.00
C620   C     0.17294   0.17483   0.94280   0.00000  Uiso   1.00
C621   C     0.05817   0.20574   0.40434   0.00000  Uiso   1.00
C622   C     0.05919   0.20298   0.15809   0.00000  Uiso   1.00
C623   C     0.15041   0.34739   0.27430   0.00000  Uiso   1.00
C624   C     0.18679   0.37050   0.27011   0.00000  Uiso   1.00
C625   C     0.20096   0.39694   0.06515   0.00000  Uiso   1.00
C626   C     0.11960   0.21373   0.24211   0.00000  Uiso   1.00
C627   C     0.18802   0.37199   0.02197   0.00000  Uiso   1.00
C628   C     0.02570   0.26406   0.19350   0.00000  Uiso   1.00
C629   C     0.05254   0.23012   0.19789   0.00000  Uiso   1.00
C630   C     0.08143   0.23199   0.24476   0.00000  Uiso   1.00
C631   C     0.07883   0.34433   0.06755   0.00000  Uiso   1.00
C632   C     0.12312   0.35766   0.06876   0.00000  Uiso   1.00
C633   C     0.13772   0.38030   0.11315   0.00000  Uiso   1.00
C634   C     0.13694   0.37096   0.36790   0.00000  Uiso   1.00
C635   C     0.02115   0.26271   0.44552   0.00000  Uiso   1.00
C636   C     0.04741   0.22775   0.44985   0.00000  Uiso   1.00
C637   C     0.15286   0.34868   0.02720   0.00000  Uiso   1.00
C638   C     0.07846   0.33967   0.31791   0.00000  Uiso   1.00
C639   C     0.12337   0.35070   0.32048   0.00000  Uiso   1.00
C640   C     0.17746   0.39713   0.11325   0.00000  Uiso   1.00
C641   C     0.19730   0.39403   0.31763   0.00000  Uiso   1.00
C642   C     0.11041   0.20094   0.49575   0.00000  Uiso   1.00
C643   C     0.17598   0.38771   0.36830   0.00000  Uiso   1.00
C644   C     0.07444   0.22306   0.49691   0.00000  Uiso   1.00
C645   C     0.06337   0.20843   0.90098   0.00000  Uiso   1.00
C646   C     0.11358   0.20207   0.99389   0.00000  Uiso   1.00
C647   C     0.19012   0.36971   0.77098   0.00000  Uiso   1.00
C648   C     0.19056   0.36575   0.53069   0.00000  Uiso   1.00
C649   C     0.15311   0.34269   0.53237   0.00000  Uiso   1.00
C650   C     0.02391   0.26351   0.69401   0.00000  Uiso   1.00
C651   C     0.05422   0.23104   0.69866   0.00000  Uiso   1.00
C652   C     0.08113   0.23216   0.74292   0.00000  Uiso   1.00
C653   C     0.07722   0.33966   0.56677   0.00000  Uiso   1.00
C654   C     0.12231   0.35143   0.57124   0.00000  Uiso   1.00
C655   C     0.15434   0.34593   0.77281   0.00000  Uiso   1.00
C656   C     0.13296   0.37512   0.61620   0.00000  Uiso   1.00
C657   C     0.02379   0.26252   0.94414   0.00000  Uiso   1.00
C658   C     0.05226   0.22908   0.94818   0.00000  Uiso   1.00
C659   C     0.13819   0.37067   0.86324   0.00000  Uiso   1.00
C660   C     0.07744   0.33842   0.81637   0.00000  Uiso   1.00
C661   C     0.12518   0.35070   0.81757   0.00000  Uiso   1.00
C662   C     0.05952   0.20286   0.65455   0.00000  Uiso   1.00
C663   C     0.07553   0.22202   0.99581   0.00000  Uiso   1.00
C664   C     0.11560   0.20835   0.74447   0.00000  Uiso   1.00
C665   C     0.19945   0.39327   0.57233   0.00000  Uiso   1.00
C666   C     0.17220   0.39355   0.61887   0.00000  Uiso   1.00
C667   C     0.19935   0.39475   0.81492   0.00000  Uiso   1.00
C668   C     0.17489   0.39209   0.86203   0.00000  Uiso   1.00
C669   C     0.09932   0.51494   0.14700   0.00000  Uiso   1.00
C670   C     0.06174   0.53907   0.14733   0.00000  Uiso   1.00
C671   C     0.17376   0.50769   0.18629   0.00000  Uiso   1.00
C672   C     0.12813   0.51981   0.18892   0.00000  Uiso   1.00
C673   C     0.04913   0.56157   0.19521   0.00000  Uiso   1.00
C674   C     0.11474   0.53825   0.23781   0.00000  Uiso   1.00
C675   C     0.07615   0.55905   0.23865   0.00000  Uiso   1.00
C676   C     0.22881   0.43144   0.06048   0.00000  Uiso   1.00
C677   C     0.22503   0.42910   0.31345   0.00000  Uiso   1.00
C678   C     0.09830   0.51528   0.40816   0.00000  Uiso   1.00
C679   C     0.06113   0.53877   0.40728   0.00000  Uiso   1.00
C680   C     0.12085   0.55058   0.48915   0.00000  Uiso   1.00
C681   C     0.17273   0.51058   0.44045   0.00000  Uiso   1.00
C682   C     0.13027   0.52611   0.44341   0.00000  Uiso   1.00
C683   C     0.05480   0.56558   0.45140   0.00000  Uiso   1.00
C684   C     0.08187   0.56815   0.49342   0.00000  Uiso   1.00
C685   C     0.01772   0.59465   0.19573   0.00000  Uiso   1.00
C686   C     0.02445   0.59933   0.44526   0.00000  Uiso   1.00
C687   C     0.10025   0.51896   0.64645   0.00000  Uiso   1.00
C688   C     0.06278   0.54305   0.64597   0.00000  Uiso   1.00
C689   C     0.17403   0.50998   0.68722   0.00000  Uiso   1.00
C690   C     0.12909   0.52477   0.69022   0.00000  Uiso   1.00
C691   C     0.05052   0.56288   0.69468   0.00000  Uiso   1.00
C692   C     0.11496   0.54232   0.73931   0.00000  Uiso   1.00
C693   C     0.07438   0.55848   0.74252   0.00000  Uiso   1.00
C694   C     0.22699   0.42735   0.56717   0.00000  Uiso   1.00
C695   C     0.22848   0.43080   0.81124   0.00000  Uiso   1.00
C696   C     0.09875   0.51869   0.89560   0.00000  Uiso   1.00
C697   C     0.05791   0.53775   0.89722   0.00000  Uiso   1.00
C698   C     0.11149   0.54377   0.98943   0.00000  Uiso   1.00
C699   C     0.17215   0.51344   0.93493   0.00000  Uiso   1.00
C700   C     0.12617   0.52316   0.94117   0.00000  Uiso   1.00
C701   C     0.04603   0.56023   0.94416   0.00000  Uiso   1.00
C702   C     0.01908   0.59688   0.94138   0.00000  Uiso   1.00
C703   C     0.07104   0.56018   0.99208   0.00000  Uiso   1.00
C704   C     0.02007   0.59643   0.69210   0.00000  Uiso   1.00
C705   C     0.13599   0.70295   0.12307   0.00000  Uiso   1.00
C706   C     0.17356   0.72289   0.12273   0.00000  Uiso   1.00
C707   C     0.15032   0.68315   0.02837   0.00000  Uiso   1.00
C708   C     0.18545   0.70788   0.02625   0.00000  Uiso   1.00
C709   C     0.07611   0.67271   0.06832   0.00000  Uiso   1.00
C710   C     0.12241   0.68443   0.07395   0.00000  Uiso   1.00
C711   C     0.22426   0.76455   0.07217   0.00000  Uiso   1.00
C712   C     0.19625   0.72842   0.07381   0.00000  Uiso   1.00
C713   C     0.13178   0.71750   0.36636   0.00000  Uiso   1.00
C714   C     0.17151   0.73456   0.36996   0.00000  Uiso   1.00
C715   C     0.15216   0.68178   0.28348   0.00000  Uiso   1.00
C716   C     0.18961   0.70365   0.28148   0.00000  Uiso   1.00
C717   C     0.07712   0.67663   0.31847   0.00000  Uiso   1.00
C718   C     0.11984   0.69378   0.32047   0.00000  Uiso   1.00
C719   C     0.22713   0.76480   0.32101   0.00000  Uiso   1.00
C720   C     0.19874   0.73157   0.32588   0.00000  Uiso   1.00
C721   C     0.13328   0.70927   0.61868   0.00000  Uiso   1.00
C722   C     0.17206   0.72833   0.62174   0.00000  Uiso   1.00
C723   C     0.15164   0.68657   0.52728   0.00000  Uiso   1.00
C724   C     0.19064   0.70766   0.52791   0.00000  Uiso   1.00
C725   C     0.07613   0.67649   0.56830   0.00000  Uiso   1.00
C726   C     0.12124   0.68957   0.57163   0.00000  Uiso   1.00
C727   C     0.22730   0.76620   0.56899   0.00000  Uiso   1.00
C728   C     0.19866   0.73172   0.57422   0.00000  Uiso   1.00
C729   C     0.13177   0.71375   0.86608   0.00000  Uiso   1.00
C730   C     0.17138   0.72931   0.87095   0.00000  Uiso   1.00
C731   C     0.14738   0.69028   0.77725   0.00000  Uiso   1.00
C732   C     0.18695   0.71024   0.77614   0.00000  Uiso   1.00
C733   C     0.07323   0.68288   0.81663   0.00000  Uiso   1.00
C734   C     0.11745   0.69760   0.81799   0.00000  Uiso   1.00
C735   C     0.23047   0.76250   0.82098   0.00000  Uiso   1.00
C736   C     0.19745   0.73119   0.82427   0.00000  Uiso   1.00
C737   C     0.09760   0.85218   0.15648   0.00000  Uiso   1.00
C738   C     0.06090   0.87474   0.15675   0.00000  Uiso   1.00
C739   C     0.17490   0.84715   0.19550   0.00000  Uiso   1.00
C740   C     0.12934   0.85915   0.19870   0.00000  Uiso   1.00
C741   C     0.02390   0.93433   0.19491   0.00000  Uiso   1.00
C742   C     0.05222   0.89930   0.20070   0.00000  Uiso   1.00
C743   C     0.11812   0.88214   0.24405   0.00000  Uiso   1.00
C744   C     0.07726   0.89683   0.24871   0.00000  Uiso   1.00
C745   C     0.09714   0.85614   0.40359   0.00000  Uiso   1.00
C746   C     0.05687   0.87631   0.40454   0.00000  Uiso   1.00
C747   C     0.17248   0.84629   0.44616   0.00000  Uiso   1.00
C748   C     0.12848   0.86160   0.44640   0.00000  Uiso   1.00
C749   C     0.01912   0.93438   0.44429   0.00000  Uiso   1.00
C750   C     0.04891   0.90130   0.45152   0.00000  Uiso   1.00
C751   C     0.11619   0.88293   0.49368   0.00000  Uiso   1.00
C752   C     0.07481   0.90119   0.49943   0.00000  Uiso   1.00
C753   C     0.10132   0.85460   0.65779   0.00000  Uiso   1.00
C754   C     0.06361   0.87678   0.65951   0.00000  Uiso   1.00
C755   C     0.17538   0.84657   0.69494   0.00000  Uiso   1.00
C756   C     0.13195   0.85989   0.69931   0.00000  Uiso   1.00
C757   C     0.02588   0.93484   0.69650   0.00000  Uiso   1.00
C758   C     0.05329   0.90014   0.70342   0.00000  Uiso   1.00
C759   C     0.11786   0.87870   0.74678   0.00000  Uiso   1.00
C760   C     0.07901   0.89835   0.74878   0.00000  Uiso   1.00
C761   C     0.10369   0.85646   0.90196   0.00000  Uiso   1.00
C762   C     0.06828   0.88102   0.90116   0.00000  Uiso   1.00
C763   C     0.17465   0.84534   0.94406   0.00000  Uiso   1.00
C764   C     0.13125   0.85957   0.94666   0.00000  Uiso   1.00
C765   C     0.02336   0.93515   0.94422   0.00000  Uiso   1.00
C766   C     0.05549   0.90337   0.94550   0.00000  Uiso   1.00
C767   C     0.11956   0.88098   0.99081   0.00000  Uiso   1.00
C768   C     0.08267   0.90285   0.99104   0.00000  Uiso   1.00
C769   C     0.39748   0.14659   0.02498   0.00000  Uiso   1.00
C770   C     0.43570   0.12410   0.02506   0.00000  Uiso   1.00
C771   C     0.32680   0.15747   0.06878   0.00000  Uiso   1.00
C772   C     0.37122   0.14352   0.07090   0.00000  Uiso   1.00
C773   C     0.47974   0.06986   0.06708   0.00000  Uiso   1.00
C774   C     0.44916   0.10344   0.07112   0.00000  Uiso   1.00
C775   C     0.38517   0.12306   0.11887   0.00000  Uiso   1.00
C776   C     0.42489   0.10799   0.12022   0.00000  Uiso   1.00
C777   C     0.40308   0.15376   0.27574   0.00000  Uiso   1.00
C778   C     0.44063   0.13317   0.27643   0.00000  Uiso   1.00
C779   C     0.32723   0.16000   0.31774   0.00000  Uiso   1.00
C780   C     0.37216   0.14883   0.31940   0.00000  Uiso   1.00
C781   C     0.47769   0.07340   0.31894   0.00000  Uiso   1.00
C782   C     0.44907   0.10783   0.32099   0.00000  Uiso   1.00
C783   C     0.38467   0.12869   0.36761   0.00000  Uiso   1.00
C784   C     0.42252   0.10972   0.36739   0.00000  Uiso   1.00
C785   C     0.40014   0.14644   0.52867   0.00000  Uiso   1.00
C786   C     0.44051   0.12862   0.52886   0.00000  Uiso   1.00
C787   C     0.32751   0.15584   0.56887   0.00000  Uiso   1.00
C788   C     0.37058   0.14058   0.57025   0.00000  Uiso   1.00
C789   C     0.48167   0.07217   0.57335   0.00000  Uiso   1.00
C790   C     0.45338   0.10807   0.57424   0.00000  Uiso   1.00
C791   C     0.38399   0.12126   0.61693   0.00000  Uiso   1.00
C792   C     0.42605   0.10824   0.62099   0.00000  Uiso   1.00
C793   C     0.40407   0.14937   0.77330   0.00000  Uiso   1.00
C794   C     0.44138   0.12652   0.77376   0.00000  Uiso   1.00
C795   C     0.32727   0.15358   0.81613   0.00000  Uiso   1.00
C796   C     0.37412   0.14576   0.81857   0.00000  Uiso   1.00
C797   C     0.47962   0.06872   0.81888   0.00000  Uiso   1.00
C798   C     0.45091   0.10576   0.82174   0.00000  Uiso   1.00
C799   C     0.38665   0.12548   0.86723   0.00000  Uiso   1.00
C800   C     0.42487   0.10622   0.86766   0.00000  Uiso   1.00
C801   C     0.36862   0.29061   0.24073   0.00000  Uiso   1.00
C802   C     0.33154   0.26868   0.24089   0.00000  Uiso   1.00
C803   C     0.35151   0.31503   0.14733   0.00000  Uiso   1.00
C804   C     0.31238   0.29338   0.14902   0.00000  Uiso   1.00
C805   C     0.42347   0.32285   0.18804   0.00000  Uiso   1.00
C806   C     0.37893   0.31274   0.19333   0.00000  Uiso   1.00
C807   C     0.27211   0.23551   0.19274   0.00000  Uiso   1.00
C808   C     0.30576   0.26726   0.19350   0.00000  Uiso   1.00
C809   C     0.34802   0.31597   0.40653   0.00000  Uiso   1.00
C810   C     0.30955   0.29331   0.40673   0.00000  Uiso   1.00
C811   C     0.42367   0.31684   0.44173   0.00000  Uiso   1.00
C812   C     0.37900   0.30512   0.44716   0.00000  Uiso   1.00
C813   C     0.26800   0.23521   0.44729   0.00000  Uiso   1.00
C814   C     0.30143   0.26638   0.44967   0.00000  Uiso   1.00
C815   C     0.36825   0.28187   0.49173   0.00000  Uiso   1.00
C816   C     0.33002   0.26320   0.49416   0.00000  Uiso   1.00
C817   C     0.36825   0.28682   0.73921   0.00000  Uiso   1.00
C818   C     0.32875   0.26897   0.74290   0.00000  Uiso   1.00
C819   C     0.34973   0.31433   0.65046   0.00000  Uiso   1.00
C820   C     0.31559   0.28795   0.64987   0.00000  Uiso   1.00
C821   C     0.42482   0.32276   0.68798   0.00000  Uiso   1.00
C822   C     0.37887   0.31112   0.69401   0.00000  Uiso   1.00
C823   C     0.27270   0.23227   0.69383   0.00000  Uiso   1.00
C824   C     0.30275   0.26604   0.69525   0.00000  Uiso   1.00
C825   C     0.34568   0.31241   0.90240   0.00000  Uiso   1.00
C826   C     0.30776   0.29085   0.90523   0.00000  Uiso   1.00
C827   C     0.42379   0.31785   0.93748   0.00000  Uiso   1.00
C828   C     0.37680   0.30679   0.94190   0.00000  Uiso   1.00
C829   C     0.26958   0.23500   0.94387   0.00000  Uiso   1.00
C830   C     0.29971   0.26530   0.94885   0.00000  Uiso   1.00
C831   C     0.36626   0.28458   0.99128   0.00000  Uiso   1.00
C832   C     0.32912   0.26476   0.99354   0.00000  Uiso   1.00
C833   C     0.48003   0.40024   0.06371   0.00000  Uiso   1.00
C834   C     0.44968   0.43631   0.31788   0.00000  Uiso   1.00
C835   C     0.37005   0.47425   0.31629   0.00000  Uiso   1.00
C836   C     0.27222   0.56533   0.43782   0.00000  Uiso   1.00
C837   C     0.40498   0.48283   0.02844   0.00000  Uiso   1.00
C838   C     0.38568   0.45733   0.36544   0.00000  Uiso   1.00
C839   C     0.44349   0.46113   0.02989   0.00000  Uiso   1.00
C840   C     0.32851   0.48688   0.06367   0.00000  Uiso   1.00
C841   C     0.37233   0.47431   0.06824   0.00000  Uiso   1.00
C842   C     0.44927   0.43273   0.07043   0.00000  Uiso   1.00
C843   C     0.38434   0.45053   0.11399   0.00000  Uiso   1.00
C844   C     0.42117   0.43087   0.11366   0.00000  Uiso   1.00
C845   C     0.27309   0.56673   0.18677   0.00000  Uiso   1.00
C846   C     0.39730   0.47729   0.27019   0.00000  Uiso   1.00
C847   C     0.42566   0.44001   0.36634   0.00000  Uiso   1.00
C848   C     0.43684   0.45814   0.27060   0.00000  Uiso   1.00
C849   C     0.32453   0.48448   0.31292   0.00000  Uiso   1.00
C850   C     0.30176   0.59906   0.44190   0.00000  Uiso   1.00
C851   C     0.30300   0.59957   0.19226   0.00000  Uiso   1.00
C852   C     0.33124   0.59907   0.23934   0.00000  Uiso   1.00
C853   C     0.47783   0.40190   0.31327   0.00000  Uiso   1.00
C854   C     0.37295   0.47375   0.81581   0.00000  Uiso   1.00
C855   C     0.45293   0.43849   0.82036   0.00000  Uiso   1.00
C856   C     0.40164   0.48297   0.52761   0.00000  Uiso   1.00
C857   C     0.44131   0.45959   0.52814   0.00000  Uiso   1.00
C858   C     0.32640   0.48752   0.56261   0.00000  Uiso   1.00
C859   C     0.37038   0.47171   0.56550   0.00000  Uiso   1.00
C860   C     0.44863   0.43355   0.57088   0.00000  Uiso   1.00
C861   C     0.38101   0.44612   0.60900   0.00000  Uiso   1.00
C862   C     0.41898   0.42862   0.61347   0.00000  Uiso   1.00
C863   C     0.27301   0.56909   0.69018   0.00000  Uiso   1.00
C864   C     0.38458   0.45025   0.85973   0.00000  Uiso   1.00
C865   C     0.40309   0.48141   0.77400   0.00000  Uiso   1.00
C866   C     0.42411   0.43583   0.86437   0.00000  Uiso   1.00
C867   C     0.44454   0.46327   0.77615   0.00000  Uiso   1.00
C868   C     0.27649   0.56605   0.93711   0.00000  Uiso   1.00
C869   C     0.32772   0.48305   0.81295   0.00000  Uiso   1.00
C870   C     0.30428   0.59916   0.94241   0.00000  Uiso   1.00
C871   C     0.47933   0.40033   0.56506   0.00000  Uiso   1.00
C872   C     0.47955   0.40322   0.81327   0.00000  Uiso   1.00
C873   C     0.38577   0.79170   0.12151   0.00000  Uiso   1.00
C874   C     0.34922   0.64514   0.39604   0.00000  Uiso   1.00
C875   C     0.42289   0.65384   0.19083   0.00000  Uiso   1.00
C876   C     0.37903   0.64094   0.19228   0.00000  Uiso   1.00
C877   C     0.34833   0.64874   0.14992   0.00000  Uiso   1.00
C878   C     0.43731   0.79766   0.02981   0.00000  Uiso   1.00
C879   C     0.47822   0.73840   0.06777   0.00000  Uiso   1.00
C880   C     0.45203   0.77477   0.07412   0.00000  Uiso   1.00
C881   C     0.42440   0.77288   0.12157   0.00000  Uiso   1.00
C882   C     0.42208   0.65538   0.44102   0.00000  Uiso   1.00
C883   C     0.37826   0.64294   0.44050   0.00000  Uiso   1.00
C884   C     0.36796   0.61896   0.23817   0.00000  Uiso   1.00
C885   C     0.31083   0.62667   0.15001   0.00000  Uiso   1.00
C886   C     0.31391   0.62070   0.39509   0.00000  Uiso   1.00
C887   C     0.47780   0.73411   0.31972   0.00000  Uiso   1.00
C888   C     0.44992   0.76846   0.32306   0.00000  Uiso   1.00
C889   C     0.42579   0.77078   0.37193   0.00000  Uiso   1.00
C890   C     0.32567   0.60278   0.49094   0.00000  Uiso   1.00
C891   C     0.38686   0.79054   0.37099   0.00000  Uiso   1.00
C892   C     0.44002   0.79461   0.27942   0.00000  Uiso   1.00
C893   C     0.36382   0.62176   0.48706   0.00000  Uiso   1.00
C894   C     0.38545   0.79091   0.61915   0.00000  Uiso   1.00
C895   C     0.34835   0.64964   0.90254   0.00000  Uiso   1.00
C896   C     0.42284   0.65650   0.69248   0.00000  Uiso   1.00
C897   C     0.37889   0.64351   0.69597   0.00000  Uiso   1.00
C898   C     0.31178   0.62519   0.90030   0.00000  Uiso   1.00
C899   C     0.36589   0.62315   0.74373   0.00000  Uiso   1.00
C900   C     0.31099   0.62891   0.65421   0.00000  Uiso   1.00
C901   C     0.47656   0.73527   0.56717   0.00000  Uiso   1.00
C902   C     0.44964   0.77095   0.57429   0.00000  Uiso   1.00
C903   C     0.42418   0.77261   0.62145   0.00000  Uiso   1.00
C904   C     0.42364   0.65625   0.94224   0.00000  Uiso   1.00
C905   C     0.37833   0.64393   0.94572   0.00000  Uiso   1.00
C906   C     0.34932   0.64742   0.65169   0.00000  Uiso   1.00
C907   C     0.39079   0.79820   0.86502   0.00000  Uiso   1.00
C908   C     0.47703   0.73826   0.81616   0.00000  Uiso   1.00
C909   C     0.45278   0.77547   0.81879   0.00000  Uiso   1.00
C910   C     0.43113   0.78302   0.86760   0.00000  Uiso   1.00
C911   C     0.32856   0.60358   0.98932   0.00000  Uiso   1.00
C912   C     0.43936   0.79532   0.52859   0.00000  Uiso   1.00
C913   C     0.44172   0.79700   0.77131   0.00000  Uiso   1.00
C914   C     0.36463   0.62626   0.98970   0.00000  Uiso   1.00
C915   C     0.30204   0.60128   0.69612   0.00000  Uiso   1.00
C916   C     0.32877   0.60010   0.74236   0.00000  Uiso   1.00
C917   C     0.32606   0.82363   0.07091   0.00000  Uiso   1.00
C918   C     0.40000   0.81981   0.03306   0.00000  Uiso   1.00
C919   C     0.40313   0.81815   0.28149   0.00000  Uiso   1.00
C920   C     0.36620   0.95906   0.24325   0.00000  Uiso   1.00
C921   C     0.32656   0.93888   0.24674   0.00000  Uiso   1.00
C922   C     0.34716   0.98314   0.15270   0.00000  Uiso   1.00
C923   C     0.31094   0.96038   0.15155   0.00000  Uiso   1.00
C924   C     0.37324   0.81164   0.32395   0.00000  Uiso   1.00
C925   C     0.37759   0.97794   0.19515   0.00000  Uiso   1.00
C926   C     0.27124   0.90366   0.19410   0.00000  Uiso   1.00
C927   C     0.30160   0.93719   0.19886   0.00000  Uiso   1.00
C928   C     0.42089   0.99204   0.19290   0.00000  Uiso   1.00
C929   C     0.33084   0.93765   0.49509   0.00000  Uiso   1.00
C930   C     0.34567   0.98652   0.40587   0.00000  Uiso   1.00
C931   C     0.30806   0.96547   0.40823   0.00000  Uiso   1.00
C932   C     0.37085   0.81239   0.07472   0.00000  Uiso   1.00
C933   C     0.37674   0.98096   0.44858   0.00000  Uiso   1.00
C934   C     0.27188   0.90453   0.44452   0.00000  Uiso   1.00
C935   C     0.30135   0.93886   0.45067   0.00000  Uiso   1.00
C936   C     0.32752   0.82237   0.31883   0.00000  Uiso   1.00
C937   C     0.42080   0.99390   0.44438   0.00000  Uiso   1.00
C938   C     0.36805   0.95609   0.49344   0.00000  Uiso   1.00
C939   C     0.40127   0.81566   0.52863   0.00000  Uiso   1.00
C940   C     0.37217   0.80940   0.57082   0.00000  Uiso   1.00
C941   C     0.36341   0.96131   0.74942   0.00000  Uiso   1.00
C942   C     0.32655   0.93955   0.74829   0.00000  Uiso   1.00
C943   C     0.34888   0.98431   0.65833   0.00000  Uiso   1.00
C944   C     0.30917   0.96286   0.66039   0.00000  Uiso   1.00
C945   C     0.32745   0.93696   0.99859   0.00000  Uiso   1.00
C946   C     0.37751   0.97914   0.70198   0.00000  Uiso   1.00
C947   C     0.27578   0.90320   0.69643   0.00000  Uiso   1.00
C948   C     0.30232   0.93693   0.70212   0.00000  Uiso   1.00
C949   C     0.40326   0.82030   0.77086   0.00000  Uiso   1.00
C950   C     0.34974   0.98223   0.90435   0.00000  Uiso   1.00
C951   C     0.31396   0.95786   0.90345   0.00000  Uiso   1.00
C952   C     0.37985   0.97577   0.94677   0.00000  Uiso   1.00
C953   C     0.27441   0.90011   0.94642   0.00000  Uiso   1.00
C954   C     0.30147   0.93418   0.95226   0.00000  Uiso   1.00
C955   C     0.32849   0.81959   0.56938   0.00000  Uiso   1.00
C956   C     0.42279   0.99034   0.69823   0.00000  Uiso   1.00
C957   C     0.42296   0.99159   0.94528   0.00000  Uiso   1.00
C958   C     0.32909   0.82308   0.81743   0.00000  Uiso   1.00
C959   C     0.36677   0.95492   0.99567   0.00000  Uiso   1.00
C960   C     0.37567   0.81674   0.81825   0.00000  Uiso   1.00
C961   C     0.60167   0.18317   0.40064   0.00000  Uiso   1.00
C962   C     0.67343   0.17742   0.44221   0.00000  Uiso   1.00
C963   C     0.67071   0.17444   0.19650   0.00000  Uiso   1.00
C964   C     0.63675   0.03938   0.12425   0.00000  Uiso   1.00
C965   C     0.67935   0.05402   0.12625   0.00000  Uiso   1.00
C966   C     0.65072   0.01564   0.03217   0.00000  Uiso   1.00
C967   C     0.68942   0.03597   0.03215   0.00000  Uiso   1.00
C968   C     0.57500   0.01497   0.31807   0.00000  Uiso   1.00
C969   C     0.62208   0.02323   0.07491   0.00000  Uiso   1.00
C970   C     0.72661   0.09584   0.07300   0.00000  Uiso   1.00
C971   C     0.69982   0.06011   0.07560   0.00000  Uiso   1.00
C972   C     0.62941   0.05189   0.36811   0.00000  Uiso   1.00
C973   C     0.66783   0.07042   0.37135   0.00000  Uiso   1.00
C974   C     0.65088   0.02024   0.28283   0.00000  Uiso   1.00
C975   C     0.69103   0.03862   0.28452   0.00000  Uiso   1.00
C976   C     0.61892   0.02899   0.32258   0.00000  Uiso   1.00
C977   C     0.72713   0.10148   0.31922   0.00000  Uiso   1.00
C978   C     0.69664   0.06796   0.32558   0.00000  Uiso   1.00
C979   C     0.59517   0.17965   0.15742   0.00000  Uiso   1.00
C980   C     0.62636   0.18722   0.19807   0.00000  Uiso   1.00
C981   C     0.62863   0.18828   0.44640   0.00000  Uiso   1.00
C982   C     0.57584   0.01320   0.07192   0.00000  Uiso   1.00
C983   C     0.57930   0.01212   0.82124   0.00000  Uiso   1.00
C984   C     0.59930   0.17684   0.65414   0.00000  Uiso   1.00
C985   C     0.67269   0.17098   0.69661   0.00000  Uiso   1.00
C986   C     0.67253   0.17898   0.94490   0.00000  Uiso   1.00
C987   C     0.64051   0.03487   0.61927   0.00000  Uiso   1.00
C988   C     0.67922   0.05392   0.61957   0.00000  Uiso   1.00
C989   C     0.65317   0.01719   0.52355   0.00000  Uiso   1.00
C990   C     0.69360   0.03715   0.52682   0.00000  Uiso   1.00
C991   C     0.62479   0.01776   0.56891   0.00000  Uiso   1.00
C992   C     0.73235   0.09398   0.56848   0.00000  Uiso   1.00
C993   C     0.70684   0.05771   0.57170   0.00000  Uiso   1.00
C994   C     0.63662   0.03985   0.87106   0.00000  Uiso   1.00
C995   C     0.67473   0.05884   0.87107   0.00000  Uiso   1.00
C996   C     0.65458   0.01445   0.78136   0.00000  Uiso   1.00
C997   C     0.69294   0.03606   0.77784   0.00000  Uiso   1.00
C998   C     0.62452   0.01976   0.82466   0.00000  Uiso   1.00
C999   C     0.72993   0.09598   0.82216   0.00000  Uiso   1.00
C1000  C     0.70108   0.06192   0.82419   0.00000  Uiso   1.00
C1001  C     0.59646   0.18101   0.90347   0.00000  Uiso   1.00
C1002  C     0.57731   0.00972   0.56895   0.00000  Uiso   1.00
C1003  C     0.62551   0.17967   0.69946   0.00000  Uiso   1.00
C1004  C     0.62735   0.18793   0.94662   0.00000  Uiso   1.00
C1005  C     0.69749   0.39815   0.32803   0.00000  Uiso   1.00
C1006  C     0.69002   0.36950   0.03506   0.00000  Uiso   1.00
C1007  C     0.68929   0.37370   0.28273   0.00000  Uiso   1.00
C1008  C     0.65244   0.34999   0.28111   0.00000  Uiso   1.00
C1009  C     0.52115   0.26171   0.19116   0.00000  Uiso   1.00
C1010  C     0.55103   0.22909   0.19643   0.00000  Uiso   1.00
C1011  C     0.57692   0.23171   0.24164   0.00000  Uiso   1.00
C1012  C     0.57822   0.33839   0.06614   0.00000  Uiso   1.00
C1013  C     0.62056   0.35364   0.07231   0.00000  Uiso   1.00
C1014  C     0.63300   0.37508   0.37162   0.00000  Uiso   1.00
C1015  C     0.65205   0.34745   0.03327   0.00000  Uiso   1.00
C1016  C     0.56340   0.20503   0.39953   0.00000  Uiso   1.00
C1017  C     0.52572   0.26496   0.43789   0.00000  Uiso   1.00
C1018  C     0.55477   0.23052   0.44281   0.00000  Uiso   1.00
C1019  C     0.63038   0.37677   0.12218   0.00000  Uiso   1.00
C1020  C     0.66947   0.39539   0.12681   0.00000  Uiso   1.00
C1021  C     0.57602   0.34411   0.31569   0.00000  Uiso   1.00
C1022  C     0.62029   0.35668   0.32163   0.00000  Uiso   1.00
C1023  C     0.61390   0.20618   0.49505   0.00000  Uiso   1.00
C1024  C     0.67081   0.39427   0.37363   0.00000  Uiso   1.00
C1025  C     0.55900   0.20284   0.15721   0.00000  Uiso   1.00
C1026  C     0.57820   0.22841   0.49153   0.00000  Uiso   1.00
C1027  C     0.69684   0.39734   0.07843   0.00000  Uiso   1.00
C1028  C     0.61501   0.21302   0.23951   0.00000  Uiso   1.00
C1029  C     0.65400   0.35064   0.52759   0.00000  Uiso   1.00
C1030  C     0.56246   0.20195   0.65205   0.00000  Uiso   1.00
C1031  C     0.63450   0.37580   0.61488   0.00000  Uiso   1.00
C1032  C     0.69139   0.36942   0.77962   0.00000  Uiso   1.00
C1033  C     0.52251   0.26098   0.69224   0.00000  Uiso   1.00
C1034  C     0.55224   0.22709   0.69649   0.00000  Uiso   1.00
C1035  C     0.61169   0.20443   0.99701   0.00000  Uiso   1.00
C1036  C     0.57806   0.22697   0.74209   0.00000  Uiso   1.00
C1037  C     0.57609   0.34288   0.56272   0.00000  Uiso   1.00
C1038  C     0.62212   0.35505   0.56848   0.00000  Uiso   1.00
C1039  C     0.65370   0.34828   0.77980   0.00000  Uiso   1.00
C1040  C     0.69310   0.37181   0.52939   0.00000  Uiso   1.00
C1041  C     0.63825   0.37153   0.86954   0.00000  Uiso   1.00
C1042  C     0.52274   0.26338   0.94219   0.00000  Uiso   1.00
C1043  C     0.55102   0.22830   0.94604   0.00000  Uiso   1.00
C1044  C     0.55921   0.20253   0.90148   0.00000  Uiso   1.00
C1045  C     0.57722   0.34655   0.81587   0.00000  Uiso   1.00
C1046  C     0.62269   0.35341   0.82241   0.00000  Uiso   1.00
C1047  C     0.61254   0.20115   0.74331   0.00000  Uiso   1.00
C1048  C     0.57488   0.22477   0.99533   0.00000  Uiso   1.00
C1049  C     0.69937   0.39738   0.57282   0.00000  Uiso   1.00
C1050  C     0.67238   0.39558   0.61962   0.00000  Uiso   1.00
C1051  C     0.70163   0.39213   0.82681   0.00000  Uiso   1.00
C1052  C     0.67622   0.38901   0.87356   0.00000  Uiso   1.00
C1053  C     0.72768   0.43140   0.32410   0.00000  Uiso   1.00
C1054  C     0.51877   0.59505   0.44576   0.00000  Uiso   1.00
C1055  C     0.59981   0.51576   0.15346   0.00000  Uiso   1.00
C1056  C     0.56036   0.53587   0.15281   0.00000  Uiso   1.00
C1057  C     0.67285   0.50912   0.19507   0.00000  Uiso   1.00
C1058  C     0.62804   0.51967   0.19935   0.00000  Uiso   1.00
C1059  C     0.55147   0.56097   0.19692   0.00000  Uiso   1.00
C1060  C     0.61369   0.53993   0.49421   0.00000  Uiso   1.00
C1061  C     0.61500   0.53992   0.24551   0.00000  Uiso   1.00
C1062  C     0.57484   0.55833   0.24683   0.00000  Uiso   1.00
C1063  C     0.72847   0.42938   0.07246   0.00000  Uiso   1.00
C1064  C     0.59431   0.51271   0.40805   0.00000  Uiso   1.00
C1065  C     0.55671   0.53653   0.40572   0.00000  Uiso   1.00
C1066  C     0.67046   0.51352   0.44333   0.00000  Uiso   1.00
C1067  C     0.62412   0.51953   0.44874   0.00000  Uiso   1.00
C1068  C     0.54938   0.56235   0.45013   0.00000  Uiso   1.00
C1069  C     0.57734   0.56199   0.49522   0.00000  Uiso   1.00
C1070  C     0.52248   0.59601   0.19272   0.00000  Uiso   1.00
C1071  C     0.58587   0.57071   0.99618   0.00000  Uiso   1.00
C1072  C     0.60176   0.52156   0.65036   0.00000  Uiso   1.00
C1073  C     0.72890   0.42725   0.82206   0.00000  Uiso   1.00
C1074  C     0.56483   0.54440   0.65055   0.00000  Uiso   1.00
C1075  C     0.67366   0.50915   0.69626   0.00000  Uiso   1.00
C1076  C     0.62768   0.52152   0.69654   0.00000  Uiso   1.00
C1077  C     0.55066   0.56527   0.69839   0.00000  Uiso   1.00
C1078  C     0.61329   0.53906   0.74499   0.00000  Uiso   1.00
C1079  C     0.57508   0.55875   0.74580   0.00000  Uiso   1.00
C1080  C     0.73104   0.43051   0.56925   0.00000  Uiso   1.00
C1081  C     0.60139   0.52130   0.90781   0.00000  Uiso   1.00
C1082  C     0.56314   0.54398   0.90690   0.00000  Uiso   1.00
C1083  C     0.67482   0.51247   0.94691   0.00000  Uiso   1.00
C1084  C     0.63164   0.52625   0.95065   0.00000  Uiso   1.00
C1085  C     0.55914   0.57148   0.94776   0.00000  Uiso   1.00
C1086  C     0.62226   0.55001   0.99514   0.00000  Uiso   1.00
C1087  C     0.52071   0.59897   0.69445   0.00000  Uiso   1.00
C1088  C     0.63401   0.70584   0.12447   0.00000  Uiso   1.00
C1089  C     0.67028   0.72893   0.12253   0.00000  Uiso   1.00
C1090  C     0.64815   0.68735   0.02981   0.00000  Uiso   1.00
C1091  C     0.68513   0.70860   0.03145   0.00000  Uiso   1.00
C1092  C     0.57671   0.67772   0.07249   0.00000  Uiso   1.00
C1093  C     0.62088   0.68665   0.07613   0.00000  Uiso   1.00
C1094  C     0.72277   0.76864   0.06860   0.00000  Uiso   1.00
C1095  C     0.69423   0.73369   0.07496   0.00000  Uiso   1.00
C1096  C     0.63344   0.71487   0.37052   0.00000  Uiso   1.00
C1097  C     0.67042   0.73542   0.37007   0.00000  Uiso   1.00
C1098  C     0.65051   0.68876   0.28126   0.00000  Uiso   1.00
C1099  C     0.69074   0.70893   0.28256   0.00000  Uiso   1.00
C1100  C     0.57667   0.67968   0.32209   0.00000  Uiso   1.00
C1101  C     0.62151   0.69299   0.32444   0.00000  Uiso   1.00
C1102  C     0.72496   0.77030   0.31710   0.00000  Uiso   1.00
C1103  C     0.69780   0.73589   0.32438   0.00000  Uiso   1.00
C1104  C     0.63273   0.71342   0.61460   0.00000  Uiso   1.00
C1105  C     0.67033   0.73191   0.61606   0.00000  Uiso   1.00
C1106  C     0.65209   0.68306   0.52719   0.00000  Uiso   1.00
C1107  C     0.68750   0.70749   0.52622   0.00000  Uiso   1.00
C1108  C     0.57604   0.67777   0.56646   0.00000  Uiso   1.00
C1109  C     0.62144   0.68922   0.56954   0.00000  Uiso   1.00
C1110  C     0.72188   0.76917   0.56378   0.00000  Uiso   1.00
C1111  C     0.69455   0.73505   0.56912   0.00000  Uiso   1.00
C1112  C     0.63507   0.71224   0.86555   0.00000  Uiso   1.00
C1113  C     0.67447   0.72901   0.86587   0.00000  Uiso   1.00
C1114  C     0.65088   0.68226   0.77697   0.00000  Uiso   1.00
C1115  C     0.69069   0.70356   0.77527   0.00000  Uiso   1.00
C1116  C     0.57720   0.67904   0.81616   0.00000  Uiso   1.00
C1117  C     0.62241   0.68930   0.82070   0.00000  Uiso   1.00
C1118  C     0.72784   0.76542   0.81042   0.00000  Uiso   1.00
C1119  C     0.69970   0.72977   0.81779   0.00000  Uiso   1.00
C1120  C     0.52518   0.60170   0.94353   0.00000  Uiso   1.00
C1121  C     0.59544   0.85373   0.15591   0.00000  Uiso   1.00
C1122  C     0.55696   0.87324   0.15629   0.00000  Uiso   1.00
C1123  C     0.67325   0.85035   0.19003   0.00000  Uiso   1.00
C1124  C     0.62788   0.86340   0.19504   0.00000  Uiso   1.00
C1125  C     0.51873   0.93299   0.19362   0.00000  Uiso   1.00
C1126  C     0.54795   0.89962   0.19998   0.00000  Uiso   1.00
C1127  C     0.61476   0.88532   0.24123   0.00000  Uiso   1.00
C1128  C     0.57480   0.90149   0.24476   0.00000  Uiso   1.00
C1129  C     0.59485   0.85799   0.40500   0.00000  Uiso   1.00
C1130  C     0.55825   0.87961   0.40607   0.00000  Uiso   1.00
C1131  C     0.67144   0.85221   0.43967   0.00000  Uiso   1.00
C1132  C     0.62709   0.86541   0.44534   0.00000  Uiso   1.00
C1133  C     0.51901   0.93598   0.44411   0.00000  Uiso   1.00
C1134  C     0.54912   0.90479   0.45072   0.00000  Uiso   1.00
C1135  C     0.61725   0.88857   0.48833   0.00000  Uiso   1.00
C1136  C     0.57782   0.90564   0.49334   0.00000  Uiso   1.00
C1137  C     0.60197   0.85596   0.64613   0.00000  Uiso   1.00
C1138  C     0.56400   0.87764   0.64736   0.00000  Uiso   1.00
C1139  C     0.67408   0.84751   0.69130   0.00000  Uiso   1.00
C1140  C     0.62885   0.85948   0.69299   0.00000  Uiso   1.00
C1141  C     0.52302   0.93330   0.69274   0.00000  Uiso   1.00
C1142  C     0.55101   0.89769   0.69604   0.00000  Uiso   1.00
C1143  C     0.61274   0.87351   0.74201   0.00000  Uiso   1.00
C1144  C     0.57230   0.88992   0.74487   0.00000  Uiso   1.00
C1145  C     0.59769   0.85031   0.90209   0.00000  Uiso   1.00
C1146  C     0.56018   0.87250   0.90029   0.00000  Uiso   1.00
C1147  C     0.67255   0.84379   0.93997   0.00000  Uiso   1.00
C1148  C     0.62624   0.85419   0.94495   0.00000  Uiso   1.00
C1149  C     0.52391   0.93069   0.94294   0.00000  Uiso   1.00
C1150  C     0.55002   0.89493   0.94665   0.00000  Uiso   1.00
C1151  C     0.61229   0.87231   0.99251   0.00000  Uiso   1.00
C1152  C     0.57528   0.89368   0.99428   0.00000  Uiso   1.00
C1153  C     0.89929   0.15042   0.02956   0.00000  Uiso   1.00
C1154  C     0.93812   0.12823   0.02793   0.00000  Uiso   1.00
C1155  C     0.82469   0.15849   0.07152   0.00000  Uiso   1.00
C1156  C     0.86937   0.14370   0.07152   0.00000  Uiso   1.00
C1157  C     0.97780   0.07298   0.07084   0.00000  Uiso   1.00
C1158  C     0.94714   0.10474   0.07278   0.00000  Uiso   1.00
C1159  C     0.88088   0.12503   0.11855   0.00000  Uiso   1.00
C1160  C     0.92100   0.10776   0.12047   0.00000  Uiso   1.00
C1161  C     0.90008   0.15525   0.27672   0.00000  Uiso   1.00
C1162  C     0.93860   0.13270   0.27540   0.00000  Uiso   1.00
C1163  C     0.82650   0.15987   0.31831   0.00000  Uiso   1.00
C1164  C     0.87236   0.15105   0.31993   0.00000  Uiso   1.00
C1165  C     0.97571   0.07245   0.31959   0.00000  Uiso   1.00
C1166  C     0.94854   0.10722   0.32046   0.00000  Uiso   1.00
C1167  C     0.88491   0.13008   0.36728   0.00000  Uiso   1.00
C1168  C     0.92350   0.11104   0.36876   0.00000  Uiso   1.00
C1169  C     0.90320   0.15452   0.52892   0.00000  Uiso   1.00
C1170  C     0.94226   0.13384   0.52930   0.00000  Uiso   1.00
C1171  C     0.82939   0.15747   0.56883   0.00000  Uiso   1.00
C1172  C     0.87527   0.14904   0.57388   0.00000  Uiso   1.00
C1173  C     0.98021   0.07237   0.56910   0.00000  Uiso   1.00
C1174  C     0.95287   0.10909   0.57501   0.00000  Uiso   1.00
C1175  C     0.88889   0.12874   0.62202   0.00000  Uiso   1.00
C1176  C     0.92940   0.11265   0.62604   0.00000  Uiso   1.00
C1177  C     0.90489   0.15347   0.78063   0.00000  Uiso   1.00
C1178  C     0.94227   0.13112   0.77994   0.00000  Uiso   1.00
C1179  C     0.82854   0.15696   0.82125   0.00000  Uiso   1.00
C1180  C     0.87507   0.14710   0.82390   0.00000  Uiso   1.00
C1181  C     0.98092   0.07144   0.81851   0.00000  Uiso   1.00
C1182  C     0.95113   0.10433   0.82199   0.00000  Uiso   1.00
C1183  C     0.88769   0.12561   0.86870   0.00000  Uiso   1.00
C1184  C     0.92526   0.10617   0.86824   0.00000  Uiso   1.00
C1185  C     0.86213   0.29443   0.24330   0.00000  Uiso   1.00
C1186  C     0.82152   0.27886   0.24433   0.00000  Uiso   1.00
C1187  C     0.85200   0.31013   0.14675   0.00000  Uiso   1.00
C1188  C     0.81223   0.29094   0.14723   0.00000  Uiso   1.00
C1189  C     0.92635   0.31869   0.19197   0.00000  Uiso   1.00
C1190  C     0.88007   0.30757   0.19357   0.00000  Uiso   1.00
C1191  C     0.77015   0.23656   0.19444   0.00000  Uiso   1.00
C1192  C     0.79973   0.27236   0.19570   0.00000  Uiso   1.00
C1193  C     0.84750   0.31695   0.40610   0.00000  Uiso   1.00
C1194  C     0.81046   0.29584   0.40760   0.00000  Uiso   1.00
C1195  C     0.92187   0.32175   0.44396   0.00000  Uiso   1.00
C1196  C     0.87533   0.31406   0.45098   0.00000  Uiso   1.00
C1197  C     0.77616   0.23443   0.44655   0.00000  Uiso   1.00
C1198  C     0.80032   0.27265   0.45335   0.00000  Uiso   1.00
C1199  C     0.97471   0.39832   0.06883   0.00000  Uiso   1.00
C1200  C     0.97725   0.39922   0.31939   0.00000  Uiso   1.00
C1201  C     0.86402   0.28968   0.74603   0.00000  Uiso   1.00
C1202  C     0.82497   0.27081   0.74698   0.00000  Uiso   1.00
C1203  C     0.84623   0.31833   0.65864   0.00000  Uiso   1.00
C1204  C     0.80729   0.29693   0.65600   0.00000  Uiso   1.00
C1205  C     0.92103   0.32308   0.69416   0.00000  Uiso   1.00
C1206  C     0.87536   0.31128   0.70054   0.00000  Uiso   1.00
C1207  C     0.77160   0.23352   0.69465   0.00000  Uiso   1.00
C1208  C     0.79840   0.27012   0.69947   0.00000  Uiso   1.00
C1209  C     0.84707   0.31536   0.90409   0.00000  Uiso   1.00
C1210  C     0.80763   0.29457   0.90469   0.00000  Uiso   1.00
C1211  C     0.92549   0.32186   0.94512   0.00000  Uiso   1.00
C1212  C     0.87815   0.30971   0.94707   0.00000  Uiso   1.00
C1213  C     0.77194   0.23563   0.94539   0.00000  Uiso   1.00
C1214  C     0.79833   0.27118   0.95157   0.00000  Uiso   1.00
C1215  C     0.86594   0.28881   0.99181   0.00000  Uiso   1.00
C1216  C     0.82614   0.27209   0.99713   0.00000  Uiso   1.00
C1217  C     0.86095   0.29837   0.50145   0.00000  Uiso   1.00
C1218  C     0.82363   0.27576   0.50285   0.00000  Uiso   1.00
C1219  C     0.77023   0.57131   0.44375   0.00000  Uiso   1.00
C1220  C     0.94810   0.43245   0.32765   0.00000  Uiso   1.00
C1221  C     0.87136   0.47282   0.32620   0.00000  Uiso   1.00
C1222  C     0.88390   0.45160   0.37208   0.00000  Uiso   1.00
C1223  C     0.90270   0.47950   0.02759   0.00000  Uiso   1.00
C1224  C     0.93824   0.45731   0.02571   0.00000  Uiso   1.00
C1225  C     0.82694   0.48634   0.06921   0.00000  Uiso   1.00
C1226  C     0.87432   0.47647   0.06952   0.00000  Uiso   1.00
C1227  C     0.94661   0.43225   0.07147   0.00000  Uiso   1.00
C1228  C     0.88545   0.45717   0.11746   0.00000  Uiso   1.00
C1229  C     0.92360   0.43794   0.12097   0.00000  Uiso   1.00
C1230  C     0.77256   0.56666   0.19710   0.00000  Uiso   1.00
C1231  C     0.89973   0.47707   0.28315   0.00000  Uiso   1.00
C1232  C     0.93707   0.45674   0.28351   0.00000  Uiso   1.00
C1233  C     0.92293   0.43315   0.37636   0.00000  Uiso   1.00
C1234  C     0.82762   0.48585   0.32245   0.00000  Uiso   1.00
C1235  C     0.77610   0.56426   0.94576   0.00000  Uiso   1.00
C1236  C     0.87451   0.47945   0.82350   0.00000  Uiso   1.00
C1237  C     0.90153   0.47911   0.52581   0.00000  Uiso   1.00
C1238  C     0.93800   0.45504   0.52591   0.00000  Uiso   1.00
C1239  C     0.92905   0.44142   0.86620   0.00000  Uiso   1.00
C1240  C     0.82761   0.48884   0.56771   0.00000  Uiso   1.00
C1241  C     0.87276   0.47694   0.57066   0.00000  Uiso   1.00
C1242  C     0.94944   0.43555   0.57261   0.00000  Uiso   1.00
C1243  C     0.88423   0.45431   0.61732   0.00000  Uiso   1.00
C1244  C     0.92293   0.43556   0.62061   0.00000  Uiso   1.00
C1245  C     0.77149   0.56854   0.69272   0.00000  Uiso   1.00
C1246  C     0.89016   0.46007   0.86911   0.00000  Uiso   1.00
C1247  C     0.90059   0.48164   0.77844   0.00000  Uiso   1.00
C1248  C     0.95033   0.43530   0.81641   0.00000  Uiso   1.00
C1249  C     0.93694   0.45623   0.77298   0.00000  Uiso   1.00
C1250  C     0.82867   0.48824   0.82209   0.00000  Uiso   1.00
C1251  C     0.83097   0.59805   0.99578   0.00000  Uiso   1.00
C1252  C     0.80540   0.59850   0.94971   0.00000  Uiso   1.00
C1253  C     0.97901   0.40100   0.81547   0.00000  Uiso   1.00
C1254  C     0.97874   0.40135   0.56879   0.00000  Uiso   1.00
C1255  C     0.84933   0.64519   0.15523   0.00000  Uiso   1.00
C1256  C     0.92380   0.65765   0.19705   0.00000  Uiso   1.00
C1257  C     0.87822   0.64436   0.19955   0.00000  Uiso   1.00
C1258  C     0.86668   0.62523   0.24752   0.00000  Uiso   1.00
C1259  C     0.81150   0.63005   0.40619   0.00000  Uiso   1.00
C1260  C     0.97802   0.73542   0.07265   0.00000  Uiso   1.00
C1261  C     0.94816   0.76792   0.07776   0.00000  Uiso   1.00
C1262  C     0.91950   0.76664   0.12240   0.00000  Uiso   1.00
C1263  C     0.92334   0.65731   0.44461   0.00000  Uiso   1.00
C1264  C     0.87981   0.64235   0.44826   0.00000  Uiso   1.00
C1265  C     0.88251   0.78691   0.11853   0.00000  Uiso   1.00
C1266  C     0.81010   0.62675   0.15797   0.00000  Uiso   1.00
C1267  C     0.97180   0.73285   0.31966   0.00000  Uiso   1.00
C1268  C     0.94255   0.76610   0.32380   0.00000  Uiso   1.00
C1269  C     0.84921   0.65024   0.40815   0.00000  Uiso   1.00
C1270  C     0.91841   0.77045   0.37219   0.00000  Uiso   1.00
C1271  C     0.88386   0.79470   0.37036   0.00000  Uiso   1.00
C1272  C     0.93547   0.79058   0.27882   0.00000  Uiso   1.00
C1273  C     0.94099   0.79552   0.03462   0.00000  Uiso   1.00
C1274  C     0.82610   0.60438   0.49632   0.00000  Uiso   1.00
C1275  C     0.86650   0.62237   0.49526   0.00000  Uiso   1.00
C1276  C     0.80140   0.60064   0.20231   0.00000  Uiso   1.00
C1277  C     0.82846   0.60357   0.24958   0.00000  Uiso   1.00
C1278  C     0.80036   0.60482   0.45045   0.00000  Uiso   1.00
C1279  C     0.86890   0.61963   0.99322   0.00000  Uiso   1.00
C1280  C     0.86200   0.62182   0.74026   0.00000  Uiso   1.00
C1281  C     0.87758   0.78517   0.60864   0.00000  Uiso   1.00
C1282  C     0.92054   0.65064   0.69066   0.00000  Uiso   1.00
C1283  C     0.87590   0.64118   0.69237   0.00000  Uiso   1.00
C1284  C     0.81498   0.62048   0.90265   0.00000  Uiso   1.00
C1285  C     0.80897   0.62394   0.64940   0.00000  Uiso   1.00
C1286  C     0.93403   0.79000   0.52188   0.00000  Uiso   1.00
C1287  C     0.97581   0.73522   0.56678   0.00000  Uiso   1.00
C1288  C     0.94347   0.76707   0.56922   0.00000  Uiso   1.00
C1289  C     0.84700   0.64660   0.64869   0.00000  Uiso   1.00
C1290  C     0.91384   0.76441   0.61248   0.00000  Uiso   1.00
C1291  C     0.92194   0.65671   0.94318   0.00000  Uiso   1.00
C1292  C     0.87818   0.64357   0.94700   0.00000  Uiso   1.00
C1293  C     0.88372   0.79126   0.86187   0.00000  Uiso   1.00
C1294  C     0.93889   0.79232   0.77240   0.00000  Uiso   1.00
C1295  C     0.97244   0.73268   0.81474   0.00000  Uiso   1.00
C1296  C     0.94660   0.76786   0.81800   0.00000  Uiso   1.00
C1297  C     0.84883   0.64454   0.90423   0.00000  Uiso   1.00
C1298  C     0.92109   0.77176   0.86417   0.00000  Uiso   1.00
C1299  C     0.79445   0.60525   0.69638   0.00000  Uiso   1.00
C1300  C     0.81998   0.60742   0.74369   0.00000  Uiso   1.00
C1301  C     0.82632   0.82666   0.31533   0.00000  Uiso   1.00
C1302  C     0.82718   0.82126   0.06698   0.00000  Uiso   1.00
C1303  C     0.86398   0.96006   0.24470   0.00000  Uiso   1.00
C1304  C     0.82850   0.93857   0.24282   0.00000  Uiso   1.00
C1305  C     0.85021   0.98606   0.15565   0.00000  Uiso   1.00
C1306  C     0.81358   0.96393   0.15404   0.00000  Uiso   1.00
C1307  C     0.92388   0.99176   0.19591   0.00000  Uiso   1.00
C1308  C     0.87727   0.98128   0.19937   0.00000  Uiso   1.00
C1309  C     0.77240   0.90467   0.19123   0.00000  Uiso   1.00
C1310  C     0.80332   0.93746   0.19543   0.00000  Uiso   1.00
C1311  C     0.83650   0.93469   0.49259   0.00000  Uiso   1.00
C1312  C     0.85061   0.98984   0.40959   0.00000  Uiso   1.00
C1313  C     0.81363   0.96637   0.40728   0.00000  Uiso   1.00
C1314  C     0.92483   0.99509   0.44496   0.00000  Uiso   1.00
C1315  C     0.88126   0.98160   0.45060   0.00000  Uiso   1.00
C1316  C     0.77638   0.90449   0.44174   0.00000  Uiso   1.00
C1317  C     0.80838   0.93632   0.44543   0.00000  Uiso   1.00
C1318  C     0.90425   0.81998   0.03565   0.00000  Uiso   1.00
C1319  C     0.87165   0.80974   0.07117   0.00000  Uiso   1.00
C1320  C     0.87290   0.95816   0.49401   0.00000  Uiso   1.00
C1321  C     0.90031   0.81394   0.27669   0.00000  Uiso   1.00
C1322  C     0.87192   0.81370   0.32108   0.00000  Uiso   1.00
C1323  C     0.82741   0.82746   0.81350   0.00000  Uiso   1.00
C1324  C     0.82396   0.82233   0.56304   0.00000  Uiso   1.00
C1325  C     0.86467   0.95690   0.74092   0.00000  Uiso   1.00
C1326  C     0.82468   0.94152   0.74234   0.00000  Uiso   1.00
C1327  C     0.85130   0.98153   0.64808   0.00000  Uiso   1.00
C1328  C     0.81264   0.96066   0.64634   0.00000  Uiso   1.00
C1329  C     0.86152   0.95910   0.99423   0.00000  Uiso   1.00
C1330  C     0.87884   0.97834   0.69309   0.00000  Uiso   1.00
C1331  C     0.77439   0.90373   0.68988   0.00000  Uiso   1.00
C1332  C     0.80142   0.93867   0.69436   0.00000  Uiso   1.00
C1333  C     0.90032   0.81424   0.77083   0.00000  Uiso   1.00
C1334  C     0.82051   0.94294   0.99538   0.00000  Uiso   1.00
C1335  C     0.84687   0.98219   0.90098   0.00000  Uiso   1.00
C1336  C     0.80898   0.96189   0.90009   0.00000  Uiso   1.00
C1337  C     0.87624   0.97817   0.94670   0.00000  Uiso   1.00
C1338  C     0.77065   0.90342   0.93978   0.00000  Uiso   1.00
C1339  C     0.79697   0.93881   0.94620   0.00000  Uiso   1.00
C1340  C     0.89824   0.81533   0.52225   0.00000  Uiso   1.00
C1341  C     0.92508   0.99253   0.69392   0.00000  Uiso   1.00
C1342  C     0.92003   0.99126   0.94338   0.00000  Uiso   1.00
C1343  C     0.86736   0.80824   0.56307   0.00000  Uiso   1.00
C1344  C     0.87058   0.81097   0.81540   0.00000  Uiso   1.00
O1345  O     0.05771   0.01068   0.11530   0.00000  Uiso   1.00
O1346  O     0.05843   0.01231   0.02116   0.00000  Uiso   1.00
O1347  O     0.23613   0.11643   0.11821   0.00000  Uiso   1.00
O1348  O     0.19131   0.17490   0.14588   0.00000  Uiso   1.00
O1349  O     0.23701   0.11260   0.02201   0.00000  Uiso   1.00
O1350  O     0.05682   0.01773   0.27009   0.00000  Uiso   1.00
O1351  O     0.19306   0.17488   0.24161   0.00000  Uiso   1.00
O1352  O     0.23618   0.11555   0.36621   0.00000  Uiso   1.00
O1353  O     0.19028   0.17558   0.39561   0.00000  Uiso   1.00
O1354  O     0.23526   0.11482   0.27197   0.00000  Uiso   1.00
O1355  O     0.19069   0.17256   0.48858   0.00000  Uiso   1.00
O1356  O     0.05505   0.01320   0.36538   0.00000  Uiso   1.00
O1357  O     0.23775   0.11116   0.61508   0.00000  Uiso   1.00
O1358  O     0.19045   0.16838   0.64502   0.00000  Uiso   1.00
O1359  O     0.05991   0.01016   0.77056   0.00000  Uiso   1.00
O1360  O     0.23640   0.11092   0.51765   0.00000  Uiso   1.00
O1361  O     0.19246   0.16982   0.99108   0.00000  Uiso   1.00
O1362  O     0.19301   0.17219   0.74270   0.00000  Uiso   1.00
O1363  O     0.23716   0.11348   0.86674   0.00000  Uiso   1.00
O1364  O     0.19370   0.17459   0.89365   0.00000  Uiso   1.00
O1365  O     0.23489   0.11265   0.77266   0.00000  Uiso   1.00
O1366  O     0.06077   0.01370   0.51863   0.00000  Uiso   1.00
O1367  O     0.05907   0.01227   0.61531   0.00000  Uiso   1.00
O1368  O     0.05653   0.00827   0.86583   0.00000  Uiso   1.00
O1369  O     0.05764   0.34134   0.26893   0.00000  Uiso   1.00
O1370  O     0.05927   0.34140   0.11595   0.00000  Uiso   1.00
O1371  O     0.05641   0.33498   0.36480   0.00000  Uiso   1.00
O1372  O     0.01042   0.27543   0.39813   0.00000  Uiso   1.00
O1373  O     0.01489   0.28087   0.49207   0.00000  Uiso   1.00
O1374  O     0.05942   0.34534   0.01959   0.00000  Uiso   1.00
O1375  O     0.01732   0.28116   0.24054   0.00000  Uiso   1.00
O1376  O     0.02075   0.28140   0.14513   0.00000  Uiso   1.00
O1377  O     0.05905   0.33476   0.76790   0.00000  Uiso   1.00
O1378  O     0.05700   0.33778   0.61605   0.00000  Uiso   1.00
O1379  O     0.05731   0.33907   0.86281   0.00000  Uiso   1.00
O1380  O     0.02354   0.28223   0.99178   0.00000  Uiso   1.00
O1381  O     0.01564   0.28068   0.89700   0.00000  Uiso   1.00
O1382  O     0.01268   0.27944   0.74225   0.00000  Uiso   1.00
O1383  O     0.05731   0.33992   0.51802   0.00000  Uiso   1.00
O1384  O     0.01277   0.27877   0.64645   0.00000  Uiso   1.00
O1385  O     0.23390   0.44535   0.26306   0.00000  Uiso   1.00
O1386  O     0.19241   0.50974   0.39244   0.00000  Uiso   1.00
O1387  O     0.19267   0.50618   0.48678   0.00000  Uiso   1.00
O1388  O     0.23466   0.44685   0.01102   0.00000  Uiso   1.00
O1389  O     0.24335   0.44676   0.10679   0.00000  Uiso   1.00
O1390  O     0.22944   0.44678   0.36010   0.00000  Uiso   1.00
O1391  O     0.19277   0.50419   0.23364   0.00000  Uiso   1.00
O1392  O     0.19310   0.50516   0.13674   0.00000  Uiso   1.00
O1393  O     0.19392   0.50744   0.98187   0.00000  Uiso   1.00
O1394  O     0.23528   0.44732   0.76458   0.00000  Uiso   1.00
O1395  O     0.19566   0.50596   0.73337   0.00000  Uiso   1.00
O1396  O     0.23298   0.44816   0.61294   0.00000  Uiso   1.00
O1397  O     0.23142   0.44448   0.51923   0.00000  Uiso   1.00
O1398  O     0.19091   0.51136   0.88678   0.00000  Uiso   1.00
O1399  O     0.23247   0.44915   0.85932   0.00000  Uiso   1.00
O1400  O     0.19377   0.50994   0.63807   0.00000  Uiso   1.00
O1401  O     0.05802   0.67393   0.27030   0.00000  Uiso   1.00
O1402  O     0.05747   0.67598   0.36729   0.00000  Uiso   1.00
O1403  O     0.23292   0.78097   0.27285   0.00000  Uiso   1.00
O1404  O     0.23547   0.78388   0.36771   0.00000  Uiso   1.00
O1405  O     0.05684   0.67177   0.01898   0.00000  Uiso   1.00
O1406  O     0.01919   0.61465   0.39498   0.00000  Uiso   1.00
O1407  O     0.01072   0.61114   0.14668   0.00000  Uiso   1.00
O1408  O     0.01325   0.61364   0.24337   0.00000  Uiso   1.00
O1409  O     0.23336   0.78255   0.11826   0.00000  Uiso   1.00
O1410  O     0.05517   0.67236   0.11693   0.00000  Uiso   1.00
O1411  O     0.23340   0.77901   0.02328   0.00000  Uiso   1.00
O1412  O     0.01423   0.61848   0.48966   0.00000  Uiso   1.00
O1413  O     0.05459   0.67936   0.76781   0.00000  Uiso   1.00
O1414  O     0.05299   0.67717   0.86400   0.00000  Uiso   1.00
O1415  O     0.23498   0.78042   0.77305   0.00000  Uiso   1.00
O1416  O     0.01292   0.61518   0.89298   0.00000  Uiso   1.00
O1417  O     0.00892   0.61427   0.98861   0.00000  Uiso   1.00
O1418  O     0.23677   0.78005   0.86765   0.00000  Uiso   1.00
O1419  O     0.00995   0.61246   0.64493   0.00000  Uiso   1.00
O1420  O     0.01380   0.61357   0.73900   0.00000  Uiso   1.00
O1421  O     0.23204   0.78499   0.61712   0.00000  Uiso   1.00
O1422  O     0.05468   0.67055   0.61592   0.00000  Uiso   1.00
O1423  O     0.23468   0.78204   0.52081   0.00000  Uiso   1.00
O1424  O     0.05752   0.67674   0.51907   0.00000  Uiso   1.00
O1425  O     0.01389   0.95323   0.49260   0.00000  Uiso   1.00
O1426  O     0.01539   0.94893   0.14479   0.00000  Uiso   1.00
O1427  O     0.19284   0.84698   0.14657   0.00000  Uiso   1.00
O1428  O     0.01808   0.95392   0.24156   0.00000  Uiso   1.00
O1429  O     0.19468   0.84220   0.24092   0.00000  Uiso   1.00
O1430  O     0.01685   0.95181   0.39466   0.00000  Uiso   1.00
O1431  O     0.19290   0.84562   0.39883   0.00000  Uiso   1.00
O1432  O     0.19338   0.84438   0.49314   0.00000  Uiso   1.00
O1433  O     0.02081   0.95172   0.64740   0.00000  Uiso   1.00
O1434  O     0.19384   0.84556   0.64716   0.00000  Uiso   1.00
O1435  O     0.01319   0.95082   0.74222   0.00000  Uiso   1.00
O1436  O     0.19461   0.84272   0.74453   0.00000  Uiso   1.00
O1437  O     0.19331   0.84094   0.99162   0.00000  Uiso   1.00
O1438  O     0.01392   0.94776   0.89431   0.00000  Uiso   1.00
O1439  O     0.19388   0.84120   0.89622   0.00000  Uiso   1.00
O1440  O     0.01500   0.95270   0.99021   0.00000  Uiso   1.00
O1441  O     0.48454   0.05613   0.36620   0.00000  Uiso   1.00
O1442  O     0.30723   0.15850   0.26889   0.00000  Uiso   1.00
O1443  O     0.30659   0.16262   0.36621   0.00000  Uiso   1.00
O1444  O     0.48996   0.05483   0.01897   0.00000  Uiso   1.00
O1445  O     0.30750   0.15464   0.02018   0.00000  Uiso   1.00
O1446  O     0.48296   0.05087   0.11394   0.00000  Uiso   1.00
O1447  O     0.30732   0.15971   0.11810   0.00000  Uiso   1.00
O1448  O     0.48263   0.05487   0.27161   0.00000  Uiso   1.00
O1449  O     0.48664   0.05023   0.86726   0.00000  Uiso   1.00
O1450  O     0.30971   0.15569   0.76647   0.00000  Uiso   1.00
O1451  O     0.30726   0.15511   0.86441   0.00000  Uiso   1.00
O1452  O     0.48655   0.05567   0.52412   0.00000  Uiso   1.00
O1453  O     0.30618   0.15768   0.52108   0.00000  Uiso   1.00
O1454  O     0.48470   0.05173   0.61852   0.00000  Uiso   1.00
O1455  O     0.30804   0.15861   0.61691   0.00000  Uiso   1.00
O1456  O     0.48858   0.05178   0.77042   0.00000  Uiso   1.00
O1457  O     0.48410   0.38335   0.36052   0.00000  Uiso   1.00
O1458  O     0.44171   0.31957   0.39199   0.00000  Uiso   1.00
O1459  O     0.25967   0.22004   0.39844   0.00000  Uiso   1.00
O1460  O     0.48742   0.38672   0.26533   0.00000  Uiso   1.00
O1461  O     0.26211   0.21910   0.24127   0.00000  Uiso   1.00
O1462  O     0.44382   0.32677   0.23469   0.00000  Uiso   1.00
O1463  O     0.26272   0.22007   0.14474   0.00000  Uiso   1.00
O1464  O     0.44076   0.32449   0.13755   0.00000  Uiso   1.00
O1465  O     0.48210   0.38262   0.01435   0.00000  Uiso   1.00
O1466  O     0.49077   0.38321   0.10972   0.00000  Uiso   1.00
O1467  O     0.44455   0.32070   0.48814   0.00000  Uiso   1.00
O1468  O     0.25940   0.21697   0.49323   0.00000  Uiso   1.00
O1469  O     0.48306   0.38634   0.76458   0.00000  Uiso   1.00
O1470  O     0.44484   0.32056   0.98491   0.00000  Uiso   1.00
O1471  O     0.44209   0.32335   0.88957   0.00000  Uiso   1.00
O1472  O     0.48848   0.38397   0.86058   0.00000  Uiso   1.00
O1473  O     0.26691   0.21487   0.73993   0.00000  Uiso   1.00
O1474  O     0.44390   0.32588   0.73535   0.00000  Uiso   1.00
O1475  O     0.26157   0.21667   0.64489   0.00000  Uiso   1.00
O1476  O     0.44228   0.32225   0.64065   0.00000  Uiso   1.00
O1477  O     0.48374   0.38497   0.51654   0.00000  Uiso   1.00
O1478  O     0.48712   0.38151   0.61100   0.00000  Uiso   1.00
O1479  O     0.26121   0.21628   0.99214   0.00000  Uiso   1.00
O1480  O     0.26528   0.21847   0.89404   0.00000  Uiso   1.00
O1481  O     0.26483   0.54905   0.23424   0.00000  Uiso   1.00
O1482  O     0.30455   0.48305   0.36195   0.00000  Uiso   1.00
O1483  O     0.26559   0.55073   0.13762   0.00000  Uiso   1.00
O1484  O     0.26779   0.54705   0.38890   0.00000  Uiso   1.00
O1485  O     0.30895   0.49127   0.11041   0.00000  Uiso   1.00
O1486  O     0.31107   0.48922   0.01518   0.00000  Uiso   1.00
O1487  O     0.30682   0.48993   0.26391   0.00000  Uiso   1.00
O1488  O     0.26240   0.54791   0.48356   0.00000  Uiso   1.00
O1489  O     0.30795   0.48614   0.86113   0.00000  Uiso   1.00
O1490  O     0.26977   0.55327   0.63893   0.00000  Uiso   1.00
O1491  O     0.26614   0.54861   0.98255   0.00000  Uiso   1.00
O1492  O     0.26548   0.55112   0.73614   0.00000  Uiso   1.00
O1493  O     0.30562   0.48824   0.60902   0.00000  Uiso   1.00
O1494  O     0.30982   0.49080   0.76497   0.00000  Uiso   1.00
O1495  O     0.26658   0.55069   0.88929   0.00000  Uiso   1.00
O1496  O     0.30768   0.48855   0.51373   0.00000  Uiso   1.00
O1497  O     0.44206   0.65734   0.39420   0.00000  Uiso   1.00
O1498  O     0.48784   0.71709   0.36500   0.00000  Uiso   1.00
O1499  O     0.48374   0.71798   0.26858   0.00000  Uiso   1.00
O1500  O     0.44100   0.65851   0.48964   0.00000  Uiso   1.00
O1501  O     0.49021   0.72059   0.11422   0.00000  Uiso   1.00
O1502  O     0.44377   0.65457   0.23742   0.00000  Uiso   1.00
O1503  O     0.44075   0.66008   0.14157   0.00000  Uiso   1.00
O1504  O     0.47924   0.72025   0.01883   0.00000  Uiso   1.00
O1505  O     0.44202   0.66044   0.89299   0.00000  Uiso   1.00
O1506  O     0.48460   0.72023   0.86339   0.00000  Uiso   1.00
O1507  O     0.48503   0.71727   0.61477   0.00000  Uiso   1.00
O1508  O     0.48058   0.71940   0.76852   0.00000  Uiso   1.00
O1509  O     0.44417   0.65497   0.99100   0.00000  Uiso   1.00
O1510  O     0.44164   0.65890   0.74141   0.00000  Uiso   1.00
O1511  O     0.44234   0.65849   0.64498   0.00000  Uiso   1.00
O1512  O     0.48182   0.71859   0.51998   0.00000  Uiso   1.00
O1513  O     0.30676   0.82706   0.36563   0.00000  Uiso   1.00
O1514  O     0.26337   0.88409   0.23962   0.00000  Uiso   1.00
O1515  O     0.30754   0.82366   0.02292   0.00000  Uiso   1.00
O1516  O     0.26655   0.88768   0.14562   0.00000  Uiso   1.00
O1517  O     0.44048   0.99555   0.24230   0.00000  Uiso   1.00
O1518  O     0.30351   0.82479   0.11704   0.00000  Uiso   1.00
O1519  O     0.26420   0.88771   0.49323   0.00000  Uiso   1.00
O1520  O     0.30698   0.82348   0.26996   0.00000  Uiso   1.00
O1521  O     0.26653   0.88746   0.39540   0.00000  Uiso   1.00
O1522  O     0.44069   0.99093   0.14363   0.00000  Uiso   1.00
O1523  O     0.44072   0.99404   0.39683   0.00000  Uiso   1.00
O1524  O     0.44046   0.99846   0.49297   0.00000  Uiso   1.00
O1525  O     0.31035   0.82178   0.86560   0.00000  Uiso   1.00
O1526  O     0.44268   0.99096   0.89636   0.00000  Uiso   1.00
O1527  O     0.26650   0.88289   0.99250   0.00000  Uiso   1.00
O1528  O     0.26539   0.88492   0.74367   0.00000  Uiso   1.00
O1529  O     0.30943   0.82499   0.52190   0.00000  Uiso   1.00
O1530  O     0.44172   0.99189   0.64943   0.00000  Uiso   1.00
O1531  O     0.26930   0.88599   0.64901   0.00000  Uiso   1.00
O1532  O     0.30793   0.82296   0.61578   0.00000  Uiso   1.00
O1533  O     0.30760   0.82517   0.77034   0.00000  Uiso   1.00
O1534  O     0.26586   0.88541   0.89897   0.00000  Uiso   1.00
O1535  O     0.44354   0.99201   0.74448   0.00000  Uiso   1.00
O1536  O     0.44309   0.99459   0.99226   0.00000  Uiso   1.00
O1537  O     0.55748   0.01118   0.26955   0.00000  Uiso   1.00
O1538  O     0.69376   0.17481   0.48956   0.00000  Uiso   1.00
O1539  O     0.73001   0.11594   0.11941   0.00000  Uiso   1.00
O1540  O     0.69107   0.17955   0.14822   0.00000  Uiso   1.00
O1541  O     0.73395   0.11271   0.02383   0.00000  Uiso   1.00
O1542  O     0.55402   0.01377   0.36559   0.00000  Uiso   1.00
O1543  O     0.69023   0.17486   0.24452   0.00000  Uiso   1.00
O1544  O     0.73426   0.11888   0.36597   0.00000  Uiso   1.00
O1545  O     0.69178   0.17504   0.39360   0.00000  Uiso   1.00
O1546  O     0.73368   0.11697   0.27109   0.00000  Uiso   1.00
O1547  O     0.55927   0.00798   0.02166   0.00000  Uiso   1.00
O1548  O     0.55502   0.01071   0.11848   0.00000  Uiso   1.00
O1549  O     0.55665   0.00733   0.51892   0.00000  Uiso   1.00
O1550  O     0.69254   0.17604   0.99325   0.00000  Uiso   1.00
O1551  O     0.73660   0.11200   0.61657   0.00000  Uiso   1.00
O1552  O     0.69234   0.17060   0.64844   0.00000  Uiso   1.00
O1553  O     0.73485   0.11274   0.52024   0.00000  Uiso   1.00
O1554  O     0.69312   0.16980   0.74448   0.00000  Uiso   1.00
O1555  O     0.73376   0.11575   0.86816   0.00000  Uiso   1.00
O1556  O     0.69247   0.17716   0.89758   0.00000  Uiso   1.00
O1557  O     0.73925   0.11183   0.77394   0.00000  Uiso   1.00
O1558  O     0.55821   0.00900   0.61704   0.00000  Uiso   1.00
O1559  O     0.56027   0.00999   0.77224   0.00000  Uiso   1.00
O1560  O     0.55863   0.00741   0.86896   0.00000  Uiso   1.00
O1561  O     0.55899   0.34023   0.26584   0.00000  Uiso   1.00
O1562  O     0.55874   0.33605   0.11352   0.00000  Uiso   1.00
O1563  O     0.55499   0.34368   0.36172   0.00000  Uiso   1.00
O1564  O     0.51708   0.28072   0.38957   0.00000  Uiso   1.00
O1565  O     0.51310   0.27999   0.23679   0.00000  Uiso   1.00
O1566  O     0.55889   0.34251   0.01755   0.00000  Uiso   1.00
O1567  O     0.51352   0.27642   0.14008   0.00000  Uiso   1.00
O1568  O     0.52017   0.28428   0.48481   0.00000  Uiso   1.00
O1569  O     0.55847   0.34496   0.76666   0.00000  Uiso   1.00
O1570  O     0.55659   0.33908   0.61053   0.00000  Uiso   1.00
O1571  O     0.55898   0.33507   0.86286   0.00000  Uiso   1.00
O1572  O     0.51382   0.27788   0.89112   0.00000  Uiso   1.00
O1573  O     0.51662   0.28120   0.98821   0.00000  Uiso   1.00
O1574  O     0.55708   0.34727   0.51505   0.00000  Uiso   1.00
O1575  O     0.51682   0.27723   0.64136   0.00000  Uiso   1.00
O1576  O     0.51810   0.28120   0.73857   0.00000  Uiso   1.00
O1577  O     0.73488   0.44812   0.11866   0.00000  Uiso   1.00
O1578  O     0.73560   0.44697   0.27489   0.00000  Uiso   1.00
O1579  O     0.73386   0.44659   0.02268   0.00000  Uiso   1.00
O1580  O     0.69033   0.51099   0.39536   0.00000  Uiso   1.00
O1581  O     0.69209   0.50429   0.24300   0.00000  Uiso   1.00
O1582  O     0.69265   0.51073   0.14698   0.00000  Uiso   1.00
O1583  O     0.73524   0.44962   0.37157   0.00000  Uiso   1.00
O1584  O     0.69138   0.51045   0.49136   0.00000  Uiso   1.00
O1585  O     0.69227   0.50650   0.64691   0.00000  Uiso   1.00
O1586  O     0.73539   0.44602   0.86890   0.00000  Uiso   1.00
O1587  O     0.69271   0.50498   0.74362   0.00000  Uiso   1.00
O1588  O     0.69483   0.50899   0.89804   0.00000  Uiso   1.00
O1589  O     0.69473   0.50700   0.99325   0.00000  Uiso   1.00
O1590  O     0.73576   0.44770   0.52020   0.00000  Uiso   1.00
O1591  O     0.73748   0.44862   0.61673   0.00000  Uiso   1.00
O1592  O     0.73614   0.44427   0.77190   0.00000  Uiso   1.00
O1593  O     0.55765   0.67718   0.27316   0.00000  Uiso   1.00
O1594  O     0.55789   0.67291   0.36932   0.00000  Uiso   1.00
O1595  O     0.73190   0.78625   0.26799   0.00000  Uiso   1.00
O1596  O     0.51379   0.61336   0.39757   0.00000  Uiso   1.00
O1597  O     0.73387   0.78788   0.36272   0.00000  Uiso   1.00
O1598  O     0.51205   0.61311   0.49291   0.00000  Uiso   1.00
O1599  O     0.51325   0.61149   0.14426   0.00000  Uiso   1.00
O1600  O     0.51879   0.61388   0.24009   0.00000  Uiso   1.00
O1601  O     0.73294   0.78495   0.11395   0.00000  Uiso   1.00
O1602  O     0.55801   0.66939   0.11812   0.00000  Uiso   1.00
O1603  O     0.73457   0.78255   0.01830   0.00000  Uiso   1.00
O1604  O     0.55554   0.68406   0.02450   0.00000  Uiso   1.00
O1605  O     0.55766   0.68008   0.76866   0.00000  Uiso   1.00
O1606  O     0.55756   0.67547   0.86544   0.00000  Uiso   1.00
O1607  O     0.73182   0.78304   0.76326   0.00000  Uiso   1.00
O1608  O     0.51496   0.61661   0.89666   0.00000  Uiso   1.00
O1609  O     0.52105   0.62086   0.99227   0.00000  Uiso   1.00
O1610  O     0.73972   0.78226   0.85877   0.00000  Uiso   1.00
O1611  O     0.51290   0.61552   0.64610   0.00000  Uiso   1.00
O1612  O     0.51333   0.61598   0.74286   0.00000  Uiso   1.00
O1613  O     0.73414   0.78422   0.61108   0.00000  Uiso   1.00
O1614  O     0.55549   0.67454   0.61541   0.00000  Uiso   1.00
O1615  O     0.72999   0.78393   0.51434   0.00000  Uiso   1.00
O1616  O     0.55758   0.67344   0.51791   0.00000  Uiso   1.00
O1617  O     0.69103   0.84768   0.48735   0.00000  Uiso   1.00
O1618  O     0.51412   0.94948   0.14561   0.00000  Uiso   1.00
O1619  O     0.69224   0.84537   0.14198   0.00000  Uiso   1.00
O1620  O     0.50991   0.95059   0.24114   0.00000  Uiso   1.00
O1621  O     0.69361   0.84627   0.23715   0.00000  Uiso   1.00
O1622  O     0.51438   0.95344   0.39581   0.00000  Uiso   1.00
O1623  O     0.68982   0.84973   0.39006   0.00000  Uiso   1.00
O1624  O     0.50722   0.95107   0.49059   0.00000  Uiso   1.00
O1625  O     0.69329   0.84528   0.98602   0.00000  Uiso   1.00
O1626  O     0.51294   0.94921   0.64586   0.00000  Uiso   1.00
O1627  O     0.69225   0.84746   0.64250   0.00000  Uiso   1.00
O1628  O     0.51436   0.94798   0.74264   0.00000  Uiso   1.00
O1629  O     0.69449   0.84539   0.73855   0.00000  Uiso   1.00
O1630  O     0.51987   0.94826   0.89476   0.00000  Uiso   1.00
O1631  O     0.69113   0.83986   0.89023   0.00000  Uiso   1.00
O1632  O     0.51293   0.94805   0.99104   0.00000  Uiso   1.00
O1633  O     0.98530   0.05564   0.36765   0.00000  Uiso   1.00
O1634  O     0.80840   0.16215   0.26832   0.00000  Uiso   1.00
O1635  O     0.80555   0.16165   0.36480   0.00000  Uiso   1.00
O1636  O     0.98233   0.05696   0.02073   0.00000  Uiso   1.00
O1637  O     0.80499   0.16007   0.02390   0.00000  Uiso   1.00
O1638  O     0.98823   0.05587   0.11871   0.00000  Uiso   1.00
O1639  O     0.80375   0.15891   0.11698   0.00000  Uiso   1.00
O1640  O     0.98260   0.05449   0.27275   0.00000  Uiso   1.00
O1641  O     0.98681   0.05201   0.86663   0.00000  Uiso   1.00
O1642  O     0.80865   0.15593   0.77457   0.00000  Uiso   1.00
O1643  O     0.80754   0.15974   0.86838   0.00000  Uiso   1.00
O1644  O     0.98766   0.05673   0.52127   0.00000  Uiso   1.00
O1645  O     0.80796   0.15705   0.52107   0.00000  Uiso   1.00
O1646  O     0.98656   0.05418   0.61555   0.00000  Uiso   1.00
O1647  O     0.80953   0.15673   0.61658   0.00000  Uiso   1.00
O1648  O     0.98999   0.05585   0.76918   0.00000  Uiso   1.00
O1649  O     0.98832   0.38120   0.36524   0.00000  Uiso   1.00
O1650  O     0.94065   0.32285   0.39604   0.00000  Uiso   1.00
O1651  O     0.76626   0.22032   0.39684   0.00000  Uiso   1.00
O1652  O     0.98301   0.38160   0.26942   0.00000  Uiso   1.00
O1653  O     0.75877   0.22165   0.24078   0.00000  Uiso   1.00
O1654  O     0.94352   0.32347   0.24010   0.00000  Uiso   1.00
O1655  O     0.76490   0.21958   0.14491   0.00000  Uiso   1.00
O1656  O     0.94638   0.31950   0.14360   0.00000  Uiso   1.00
O1657  O     0.98429   0.38342   0.02226   0.00000  Uiso   1.00
O1658  O     0.98553   0.38279   0.11643   0.00000  Uiso   1.00
O1659  O     0.76598   0.21646   0.49253   0.00000  Uiso   1.00
O1660  O     0.94344   0.32042   0.49053   0.00000  Uiso   1.00
O1661  O     0.94663   0.32073   0.99128   0.00000  Uiso   1.00
O1662  O     0.76419   0.21894   0.89573   0.00000  Uiso   1.00
O1663  O     0.99056   0.38500   0.76806   0.00000  Uiso   1.00
O1664  O     0.98761   0.38218   0.86222   0.00000  Uiso   1.00
O1665  O     0.76448   0.21571   0.74196   0.00000  Uiso   1.00
O1666  O     0.94255   0.32882   0.74180   0.00000  Uiso   1.00
O1667  O     0.76313   0.21889   0.64668   0.00000  Uiso   1.00
O1668  O     0.94103   0.32494   0.64469   0.00000  Uiso   1.00
O1669  O     0.98410   0.38356   0.51943   0.00000  Uiso   1.00
O1670  O     0.98752   0.38347   0.61556   0.00000  Uiso   1.00
O1671  O     0.76087   0.21950   0.99377   0.00000  Uiso   1.00
O1672  O     0.94238   0.32690   0.89658   0.00000  Uiso   1.00
O1673  O     0.76110   0.55234   0.49257   0.00000  Uiso   1.00
O1674  O     0.80597   0.48876   0.36998   0.00000  Uiso   1.00
O1675  O     0.80969   0.48909   0.27176   0.00000  Uiso   1.00
O1676  O     0.76627   0.55050   0.14819   0.00000  Uiso   1.00
O1677  O     0.76452   0.54769   0.24359   0.00000  Uiso   1.00
O1678  O     0.76667   0.55339   0.39517   0.00000  Uiso   1.00
O1679  O     0.80786   0.48811   0.02115   0.00000  Uiso   1.00
O1680  O     0.80893   0.49015   0.11649   0.00000  Uiso   1.00
O1681  O     0.80718   0.49031   0.61605   0.00000  Uiso   1.00
O1682  O     0.80836   0.48823   0.86779   0.00000  Uiso   1.00
O1683  O     0.80968   0.49047   0.77290   0.00000  Uiso   1.00
O1684  O     0.76046   0.55310   0.64507   0.00000  Uiso   1.00
O1685  O     0.76395   0.55092   0.74130   0.00000  Uiso   1.00
O1686  O     0.76536   0.54814   0.99211   0.00000  Uiso   1.00
O1687  O     0.76894   0.54916   0.89724   0.00000  Uiso   1.00
O1688  O     0.80854   0.49240   0.51946   0.00000  Uiso   1.00
O1689  O     0.94266   0.65308   0.39552   0.00000  Uiso   1.00
O1690  O     0.98272   0.71663   0.36698   0.00000  Uiso   1.00
O1691  O     0.98583   0.71890   0.27150   0.00000  Uiso   1.00
O1692  O     0.94301   0.66323   0.49064   0.00000  Uiso   1.00
O1693  O     0.94506   0.65829   0.24394   0.00000  Uiso   1.00
O1694  O     0.94053   0.65667   0.14753   0.00000  Uiso   1.00
O1695  O     0.98482   0.71927   0.02393   0.00000  Uiso   1.00
O1696  O     0.98656   0.71670   0.11865   0.00000  Uiso   1.00
O1697  O     0.93970   0.65684   0.89482   0.00000  Uiso   1.00
O1698  O     0.98292   0.71720   0.86297   0.00000  Uiso   1.00
O1699  O     0.97684   0.71418   0.76774   0.00000  Uiso   1.00
O1700  O     0.94190   0.65991   0.98966   0.00000  Uiso   1.00
O1701  O     0.94217   0.64956   0.73768   0.00000  Uiso   1.00
O1702  O     0.94017   0.65473   0.64160   0.00000  Uiso   1.00
O1703  O     0.98609   0.71949   0.51868   0.00000  Uiso   1.00
O1704  O     0.98286   0.71703   0.61515   0.00000  Uiso   1.00
O1705  O     0.80465   0.82955   0.36214   0.00000  Uiso   1.00
O1706  O     0.94305   0.99600   0.14623   0.00000  Uiso   1.00
O1707  O     0.76297   0.88819   0.23786   0.00000  Uiso   1.00
O1708  O     0.80664   0.82354   0.01732   0.00000  Uiso   1.00
O1709  O     0.76586   0.88792   0.14272   0.00000  Uiso   1.00
O1710  O     0.76817   0.88602   0.48848   0.00000  Uiso   1.00
O1711  O     0.80656   0.82529   0.11463   0.00000  Uiso   1.00
O1712  O     0.80792   0.82793   0.26588   0.00000  Uiso   1.00
O1713  O     0.76529   0.89213   0.39200   0.00000  Uiso   1.00
O1714  O     0.94350   0.99143   0.24244   0.00000  Uiso   1.00
O1715  O     0.94407   0.99236   0.39577   0.00000  Uiso   1.00
O1716  O     0.94619   0.99733   0.49221   0.00000  Uiso   1.00
O1717  O     0.80745   0.82918   0.86214   0.00000  Uiso   1.00
O1718  O     0.94486   0.99489   0.64636   0.00000  Uiso   1.00
O1719  O     0.76385   0.88740   0.73780   0.00000  Uiso   1.00
O1720  O     0.80465   0.82459   0.51417   0.00000  Uiso   1.00
O1721  O     0.76667   0.88739   0.63960   0.00000  Uiso   1.00
O1722  O     0.94050   0.99131   0.89511   0.00000  Uiso   1.00
O1723  O     0.80410   0.82549   0.61029   0.00000  Uiso   1.00
O1724  O     0.94487   0.99239   0.74021   0.00000  Uiso   1.00
O1725  O     0.80672   0.82434   0.76771   0.00000  Uiso   1.00
O1726  O     0.76757   0.88394   0.98766   0.00000  Uiso   1.00
O1727  O     0.76125   0.88769   0.89077   0.00000  Uiso   1.00
O1728  O     0.94124   0.99357   0.99030   0.00000  Uiso   1.00
O1729  O     0.23856   0.18401   0.31943   0.00000  Uiso   1.00
O1730  O     0.01198   0.01807   0.19380   0.00000  Uiso   1.00
O1731  O     0.23866   0.18106   0.06948   0.00000  Uiso   1.00
O1732  O     0.01200   0.02015   0.44401   0.00000  Uiso   1.00
O1733  O     0.24099   0.18101   0.81728   0.00000  Uiso   1.00
O1734  O     0.01334   0.01892   0.69175   0.00000  Uiso   1.00
O1735  O     0.23703   0.17968   0.56850   0.00000  Uiso   1.00
O1736  O     0.01028   0.02001   0.94329   0.00000  Uiso   1.00
O1737  O     0.01152   0.34709   0.19253   0.00000  Uiso   1.00
O1738  O     0.00883   0.34510   0.44122   0.00000  Uiso   1.00
O1739  O     0.01049   0.34819   0.69129   0.00000  Uiso   1.00
O1740  O     0.01661   0.35051   0.94120   0.00000  Uiso   1.00
O1741  O     0.23782   0.51221   0.31129   0.00000  Uiso   1.00
O1742  O     0.24158   0.51454   0.06186   0.00000  Uiso   1.00
O1743  O     0.24201   0.51527   0.56011   0.00000  Uiso   1.00
O1744  O     0.24091   0.51418   0.81088   0.00000  Uiso   1.00
O1745  O     0.01127   0.68440   0.43964   0.00000  Uiso   1.00
O1746  O     0.00870   0.67904   0.19265   0.00000  Uiso   1.00
O1747  O     0.00931   0.68082   0.94102   0.00000  Uiso   1.00
O1748  O     0.00740   0.68041   0.69101   0.00000  Uiso   1.00
O1749  O     0.23744   0.84758   0.06868   0.00000  Uiso   1.00
O1750  O     0.24021   0.85011   0.31984   0.00000  Uiso   1.00
O1751  O     0.24038   0.85174   0.56989   0.00000  Uiso   1.00
O1752  O     0.24290   0.84878   0.82068   0.00000  Uiso   1.00
O1753  O     0.25942   0.15208   0.44271   0.00000  Uiso   1.00
O1754  O     0.26108   0.15151   0.19302   0.00000  Uiso   1.00
O1755  O     0.26121   0.14849   0.94369   0.00000  Uiso   1.00
O1756  O     0.25966   0.14748   0.69445   0.00000  Uiso   1.00
O1757  O     0.48794   0.31453   0.06303   0.00000  Uiso   1.00
O1758  O     0.48735   0.31779   0.31384   0.00000  Uiso   1.00
O1759  O     0.49199   0.31496   0.56368   0.00000  Uiso   1.00
O1760  O     0.49035   0.31690   0.81311   0.00000  Uiso   1.00
O1761  O     0.26173   0.47943   0.43657   0.00000  Uiso   1.00
O1762  O     0.26241   0.48168   0.18734   0.00000  Uiso   1.00
O1763  O     0.26035   0.48164   0.93574   0.00000  Uiso   1.00
O1764  O     0.26290   0.48482   0.68534   0.00000  Uiso   1.00
O1765  O     0.49246   0.65037   0.31837   0.00000  Uiso   1.00
O1766  O     0.48896   0.65344   0.06606   0.00000  Uiso   1.00
O1767  O     0.49069   0.65167   0.81727   0.00000  Uiso   1.00
O1768  O     0.48861   0.65249   0.56747   0.00000  Uiso   1.00
O1769  O     0.26094   0.81999   0.44498   0.00000  Uiso   1.00
O1770  O     0.48968   0.98576   0.06764   0.00000  Uiso   1.00
O1771  O     0.26060   0.81804   0.19447   0.00000  Uiso   1.00
O1772  O     0.48764   0.98700   0.31969   0.00000  Uiso   1.00
O1773  O     0.26133   0.81562   0.94323   0.00000  Uiso   1.00
O1774  O     0.26032   0.81800   0.69637   0.00000  Uiso   1.00
O1775  O     0.49110   0.98376   0.82135   0.00000  Uiso   1.00
O1776  O     0.48896   0.98606   0.56937   0.00000  Uiso   1.00
O1777  O     0.73755   0.18495   0.31806   0.00000  Uiso   1.00
O1778  O     0.50803   0.01734   0.19275   0.00000  Uiso   1.00
O1779  O     0.73512   0.18399   0.06947   0.00000  Uiso   1.00
O1780  O     0.50830   0.01978   0.44243   0.00000  Uiso   1.00
O1781  O     0.73902   0.18176   0.82045   0.00000  Uiso   1.00
O1782  O     0.50934   0.01509   0.69375   0.00000  Uiso   1.00
O1783  O     0.73840   0.17969   0.57086   0.00000  Uiso   1.00
O1784  O     0.51085   0.01485   0.94202   0.00000  Uiso   1.00
O1785  O     0.51304   0.34531   0.18769   0.00000  Uiso   1.00
O1786  O     0.51025   0.35046   0.43648   0.00000  Uiso   1.00
O1787  O     0.51153   0.34854   0.68784   0.00000  Uiso   1.00
O1788  O     0.51064   0.34622   0.93801   0.00000  Uiso   1.00
O1789  O     0.74038   0.51419   0.31974   0.00000  Uiso   1.00
O1790  O     0.74052   0.51422   0.07107   0.00000  Uiso   1.00
O1791  O     0.74111   0.51286   0.81884   0.00000  Uiso   1.00
O1792  O     0.73739   0.51664   0.56672   0.00000  Uiso   1.00
O1793  O     0.50846   0.67952   0.44197   0.00000  Uiso   1.00
O1794  O     0.51038   0.68166   0.19147   0.00000  Uiso   1.00
O1795  O     0.51075   0.68479   0.94271   0.00000  Uiso   1.00
O1796  O     0.51004   0.68202   0.69449   0.00000  Uiso   1.00
O1797  O     0.73753   0.85579   0.31319   0.00000  Uiso   1.00
O1798  O     0.74141   0.84969   0.06488   0.00000  Uiso   1.00
O1799  O     0.73593   0.84764   0.81319   0.00000  Uiso   1.00
O1800  O     0.73795   0.85211   0.56338   0.00000  Uiso   1.00
O1801  O     0.76215   0.15205   0.44193   0.00000  Uiso   1.00
O1802  O     0.75897   0.15447   0.19301   0.00000  Uiso   1.00
O1803  O     0.76023   0.15080   0.94578   0.00000  Uiso   1.00
O1804  O     0.76306   0.14559   0.69589   0.00000  Uiso   1.00
O1805  O     0.99111   0.31574   0.06653   0.00000  Uiso   1.00
O1806  O     0.98967   0.31277   0.31595   0.00000  Uiso   1.00
O1807  O     0.98993   0.31440   0.56686   0.00000  Uiso   1.00
O1808  O     0.98793   0.31920   0.81927   0.00000  Uiso   1.00
O1809  O     0.75954   0.48845   0.44382   0.00000  Uiso   1.00
O1810  O     0.75908   0.48083   0.19671   0.00000  Uiso   1.00
O1811  O     0.75930   0.48186   0.69200   0.00000  Uiso   1.00
O1812  O     0.75986   0.48070   0.94680   0.00000  Uiso   1.00
O1813  O     0.99297   0.64872   0.31861   0.00000  Uiso   1.00
O1814  O     0.98567   0.65050   0.06769   0.00000  Uiso   1.00
O1815  O     0.98768   0.64958   0.81587   0.00000  Uiso   1.00
O1816  O     0.98690   0.64825   0.56269   0.00000  Uiso   1.00
O1817  O     0.75746   0.81937   0.43825   0.00000  Uiso   1.00
O1818  O     0.98912   0.98873   0.06660   0.00000  Uiso   1.00
O1819  O     0.75785   0.81915   0.19174   0.00000  Uiso   1.00
O1820  O     0.98992   0.98740   0.31878   0.00000  Uiso   1.00
O1821  O     0.76229   0.81823   0.94014   0.00000  Uiso   1.00
O1822  O     0.99098   0.98781   0.56756   0.00000  Uiso   1.00
O1823  O     0.76279   0.82063   0.68743   0.00000  Uiso   1.00
O1824  O     0.98933   0.98502   0.81667   0.00000  Uiso   1.00
