data_final_Cl-Al-SABVOH01
_audit_creation_date              2022-12-15
_audit_creation_method            'Materials Studio'
_symmetry_space_group_name_H-M    'P1'
_symmetry_Int_Tables_number       1
_symmetry_cell_setting            triclinic
loop_
_symmetry_equiv_pos_as_xyz
  x,y,z
_cell_length_a                    34.1197
_cell_length_b                    36.8743
_cell_length_c                    26.4008
_cell_angle_alpha                 90.0000
_cell_angle_beta                  90.0000
_cell_angle_gamma                 90.0000
loop_
_atom_site_label
_atom_site_type_symbol
_atom_site_fract_x
_atom_site_fract_y
_atom_site_fract_z
_atom_site_U_iso_or_equiv
_atom_site_adp_type
_atom_site_occupancy
Al1    Al    0.23617   0.17760   0.02325   0.00000  Uiso   1.00
Al2    Al    0.23916   0.17402   0.15012   0.00000  Uiso   1.00
Al3    Al    0.23662   0.17488   0.27269   0.00000  Uiso   1.00
Al4    Al    0.23579   0.17392   0.39846   0.00000  Uiso   1.00
Al5    Al    0.23424   0.17881   0.52390   0.00000  Uiso   1.00
Al6    Al    0.23680   0.17388   0.64781   0.00000  Uiso   1.00
Al7    Al    0.23699   0.17670   0.77346   0.00000  Uiso   1.00
Al8    Al    0.23824   0.17427   0.90003   0.00000  Uiso   1.00
Al9    Al    0.24247   0.50508   0.03152   0.00000  Uiso   1.00
Al10   Al    0.24317   0.50570   0.15602   0.00000  Uiso   1.00
Al11   Al    0.24515   0.50634   0.28045   0.00000  Uiso   1.00
Al12   Al    0.24420   0.50282   0.40415   0.00000  Uiso   1.00
Al13   Al    0.24420   0.50628   0.52848   0.00000  Uiso   1.00
Al14   Al    0.24320   0.50715   0.65246   0.00000  Uiso   1.00
Al15   Al    0.24305   0.50888   0.90527   0.00000  Uiso   1.00
Al16   Al    0.24245   0.50655   0.77774   0.00000  Uiso   1.00
Al17   Al    0.23076   0.83827   0.03089   0.00000  Uiso   1.00
Al18   Al    0.23473   0.83878   0.15584   0.00000  Uiso   1.00
Al19   Al    0.23397   0.84111   0.28144   0.00000  Uiso   1.00
Al20   Al    0.23552   0.84003   0.40503   0.00000  Uiso   1.00
Al21   Al    0.23582   0.84414   0.53029   0.00000  Uiso   1.00
Al22   Al    0.23696   0.84272   0.65765   0.00000  Uiso   1.00
Al23   Al    0.23701   0.83933   0.77961   0.00000  Uiso   1.00
Al24   Al    0.23762   0.84152   0.90580   0.00000  Uiso   1.00
Al25   Al    0.48763   0.00415   0.02780   0.00000  Uiso   1.00
Al26   Al    0.48842   0.00323   0.40400   0.00000  Uiso   1.00
Al27   Al    0.48681   0.00414   0.15488   0.00000  Uiso   1.00
Al28   Al    0.48733   0.00083   0.77815   0.00000  Uiso   1.00
Al29   Al    0.49005   0.00812   0.65286   0.00000  Uiso   1.00
Al30   Al    0.49136   0.00446   0.52786   0.00000  Uiso   1.00
Al31   Al    0.48665   0.00409   0.90350   0.00000  Uiso   1.00
Al32   Al    0.48484   0.34007   0.03421   0.00000  Uiso   1.00
Al33   Al    0.48645   0.33881   0.15885   0.00000  Uiso   1.00
Al34   Al    0.49113   0.33529   0.28169   0.00000  Uiso   1.00
Al35   Al    0.48899   0.33354   0.40562   0.00000  Uiso   1.00
Al36   Al    0.48760   0.33232   0.53141   0.00000  Uiso   1.00
Al37   Al    0.48924   0.33023   0.65364   0.00000  Uiso   1.00
Al38   Al    0.49161   0.33842   0.77861   0.00000  Uiso   1.00
Al39   Al    0.48661   0.33573   0.90730   0.00000  Uiso   1.00
Al40   Al    0.48842   0.68108   0.15045   0.00000  Uiso   1.00
Al41   Al    0.49048   0.67895   0.27562   0.00000  Uiso   1.00
Al42   Al    0.49155   0.68073   0.40117   0.00000  Uiso   1.00
Al43   Al    0.48707   0.67867   0.02283   0.00000  Uiso   1.00
Al44   Al    0.48779   0.68318   0.52660   0.00000  Uiso   1.00
Al45   Al    0.48948   0.68087   0.65052   0.00000  Uiso   1.00
Al46   Al    0.49005   0.67508   0.77318   0.00000  Uiso   1.00
Al47   Al    0.48613   0.67450   0.89698   0.00000  Uiso   1.00
Al48   Al    0.48844   0.99932   0.27980   0.00000  Uiso   1.00
Al49   Al    0.74049   0.17162   0.02365   0.00000  Uiso   1.00
Al50   Al    0.73728   0.17019   0.14991   0.00000  Uiso   1.00
Al51   Al    0.74035   0.17210   0.27358   0.00000  Uiso   1.00
Al52   Al    0.73973   0.16962   0.39864   0.00000  Uiso   1.00
Al53   Al    0.74014   0.17341   0.52408   0.00000  Uiso   1.00
Al54   Al    0.74049   0.16986   0.64968   0.00000  Uiso   1.00
Al55   Al    0.74066   0.17489   0.77404   0.00000  Uiso   1.00
Al56   Al    0.73841   0.17181   0.89902   0.00000  Uiso   1.00
Al57   Al    0.73290   0.50530   0.02557   0.00000  Uiso   1.00
Al58   Al    0.73305   0.50782   0.15229   0.00000  Uiso   1.00
Al59   Al    0.73612   0.50453   0.27471   0.00000  Uiso   1.00
Al60   Al    0.73273   0.50507   0.39939   0.00000  Uiso   1.00
Al61   Al    0.73138   0.50736   0.52414   0.00000  Uiso   1.00
Al62   Al    0.73482   0.50611   0.64928   0.00000  Uiso   1.00
Al63   Al    0.73335   0.50462   0.77630   0.00000  Uiso   1.00
Al64   Al    0.73302   0.50504   0.90139   0.00000  Uiso   1.00
Al65   Al    0.74151   0.83896   0.02912   0.00000  Uiso   1.00
Al66   Al    0.74193   0.83423   0.28183   0.00000  Uiso   1.00
Al67   Al    0.74711   0.83410   0.40786   0.00000  Uiso   1.00
Al68   Al    0.74497   0.84032   0.15646   0.00000  Uiso   1.00
Al69   Al    0.74304   0.83902   0.53030   0.00000  Uiso   1.00
Al70   Al    0.74218   0.84012   0.65541   0.00000  Uiso   1.00
Al71   Al    0.74075   0.83362   0.78147   0.00000  Uiso   1.00
Al72   Al    0.74255   0.83828   0.90542   0.00000  Uiso   1.00
Al73   Al    0.99005   0.01001   0.40840   0.00000  Uiso   1.00
Al74   Al    0.98678   0.00767   0.28324   0.00000  Uiso   1.00
Al75   Al    0.98756   0.00936   0.03491   0.00000  Uiso   1.00
Al76   Al    0.98858   0.00693   0.15889   0.00000  Uiso   1.00
Al77   Al    0.98741   0.01012   0.65716   0.00000  Uiso   1.00
Al78   Al    0.98712   0.01130   0.78135   0.00000  Uiso   1.00
Al79   Al    0.98912   0.00537   0.90758   0.00000  Uiso   1.00
Al80   Al    0.98921   0.01301   0.53274   0.00000  Uiso   1.00
Al81   Al    0.98712   0.34615   0.02616   0.00000  Uiso   1.00
Al82   Al    0.98985   0.34707   0.15349   0.00000  Uiso   1.00
Al83   Al    0.98929   0.34880   0.27818   0.00000  Uiso   1.00
Al84   Al    0.98730   0.34175   0.40333   0.00000  Uiso   1.00
Al85   Al    0.98647   0.34484   0.52801   0.00000  Uiso   1.00
Al86   Al    0.98539   0.34305   0.65169   0.00000  Uiso   1.00
Al87   Al    0.98612   0.34225   0.77693   0.00000  Uiso   1.00
Al88   Al    0.98622   0.34164   0.90132   0.00000  Uiso   1.00
Al89   Al    0.99222   0.66566   0.02381   0.00000  Uiso   1.00
Al90   Al    0.98891   0.66732   0.14965   0.00000  Uiso   1.00
Al91   Al    0.98850   0.66643   0.27548   0.00000  Uiso   1.00
Al92   Al    0.98909   0.66807   0.39988   0.00000  Uiso   1.00
Al93   Al    0.99000   0.66294   0.52597   0.00000  Uiso   1.00
Al94   Al    0.99053   0.66846   0.64929   0.00000  Uiso   1.00
Al95   Al    0.98689   0.66544   0.89903   0.00000  Uiso   1.00
Al96   Al    0.98890   0.66602   0.77264   0.00000  Uiso   1.00
Cl97   Cl    0.05569   0.10529   0.30377   0.00000  Uiso   1.00
Cl98   Cl    0.16249   0.08273   0.10956   0.00000  Uiso   1.00
Cl99   Cl    0.05408   0.11181   0.04559   0.00000  Uiso   1.00
Cl100  Cl    0.17691   0.06363   0.38652   0.00000  Uiso   1.00
Cl101  Cl    0.06911   0.10034   0.81014   0.00000  Uiso   1.00
Cl102  Cl    0.17956   0.06351   0.62268   0.00000  Uiso   1.00
Cl103  Cl    0.17703   0.06486   0.88196   0.00000  Uiso   1.00
Cl104  Cl    0.06495   0.10005   0.56328   0.00000  Uiso   1.00
Cl105  Cl    0.18662   0.28894   0.25914   0.00000  Uiso   1.00
Cl106  Cl    0.05999   0.24560   0.42463   0.00000  Uiso   1.00
Cl107  Cl    0.12538   0.20844   0.18120   0.00000  Uiso   1.00
Cl108  Cl    0.05783   0.25015   0.68157   0.00000  Uiso   1.00
Cl109  Cl    0.04967   0.23706   0.90597   0.00000  Uiso   1.00
Cl110  Cl    0.09796   0.30656   0.98748   0.00000  Uiso   1.00
Cl111  Cl    0.18613   0.28953   0.76277   0.00000  Uiso   1.00
Cl112  Cl    0.18167   0.29171   0.51342   0.00000  Uiso   1.00
Cl113  Cl    0.04532   0.56035   0.17640   0.00000  Uiso   1.00
Cl114  Cl    0.06105   0.44436   0.12134   0.00000  Uiso   1.00
Cl115  Cl    0.05226   0.56912   0.42942   0.00000  Uiso   1.00
Cl116  Cl    0.06399   0.43488   0.37387   0.00000  Uiso   1.00
Cl117  Cl    0.15994   0.42268   0.06158   0.00000  Uiso   1.00
Cl118  Cl    0.17023   0.59585   0.00490   0.00000  Uiso   1.00
Cl119  Cl    0.16856   0.59391   0.24829   0.00000  Uiso   1.00
Cl120  Cl    0.16989   0.41372   0.30638   0.00000  Uiso   1.00
Cl121  Cl    0.05855   0.57428   0.93936   0.00000  Uiso   1.00
Cl122  Cl    0.05145   0.43535   0.62120   0.00000  Uiso   1.00
Cl123  Cl    0.05111   0.56210   0.67331   0.00000  Uiso   1.00
Cl124  Cl    0.07024   0.42555   0.85549   0.00000  Uiso   1.00
Cl125  Cl    0.17079   0.41151   0.56568   0.00000  Uiso   1.00
Cl126  Cl    0.16316   0.59068   0.74267   0.00000  Uiso   1.00
Cl127  Cl    0.17670   0.40352   0.79618   0.00000  Uiso   1.00
Cl128  Cl    0.15667   0.75687   0.31672   0.00000  Uiso   1.00
Cl129  Cl    0.06449   0.75290   0.10884   0.00000  Uiso   1.00
Cl130  Cl    0.10742   0.69048   0.39523   0.00000  Uiso   1.00
Cl131  Cl    0.18365   0.72825   0.04148   0.00000  Uiso   1.00
Cl132  Cl    0.05206   0.77374   0.63349   0.00000  Uiso   1.00
Cl133  Cl    0.17021   0.73516   0.80843   0.00000  Uiso   1.00
Cl134  Cl    0.05728   0.76502   0.86712   0.00000  Uiso   1.00
Cl135  Cl    0.17626   0.60876   0.50958   0.00000  Uiso   1.00
Cl136  Cl    0.18734   0.95513   0.26282   0.00000  Uiso   1.00
Cl137  Cl    0.05854   0.91724   0.42809   0.00000  Uiso   1.00
Cl138  Cl    0.12832   0.88432   0.19311   0.00000  Uiso   1.00
Cl139  Cl    0.18069   0.95426   0.75834   0.00000  Uiso   1.00
Cl140  Cl    0.04649   0.90018   0.91721   0.00000  Uiso   1.00
Cl141  Cl    0.10403   0.97634   0.99349   0.00000  Uiso   1.00
Cl142  Cl    0.10852   0.82165   0.54593   0.00000  Uiso   1.00
Cl143  Cl    0.13032   0.88347   0.69587   0.00000  Uiso   1.00
Cl144  Cl    0.10763   0.98805   0.51136   0.00000  Uiso   1.00
Cl145  Cl    0.36565   0.15267   0.13416   0.00000  Uiso   1.00
Cl146  Cl    0.34801   0.13363   0.35899   0.00000  Uiso   1.00
Cl147  Cl    0.37032   0.03439   0.30703   0.00000  Uiso   1.00
Cl148  Cl    0.30819   0.08057   0.04822   0.00000  Uiso   1.00
Cl149  Cl    0.42951   0.11966   0.87724   0.00000  Uiso   1.00
Cl150  Cl    0.36489   0.15203   0.62286   0.00000  Uiso   1.00
Cl151  Cl    0.38182   0.05245   0.56613   0.00000  Uiso   1.00
Cl152  Cl    0.38067   0.04971   0.81287   0.00000  Uiso   1.00
Cl153  Cl    0.30089   0.27323   0.17368   0.00000  Uiso   1.00
Cl154  Cl    0.43125   0.23051   0.25389   0.00000  Uiso   1.00
Cl155  Cl    0.30730   0.27118   0.42759   0.00000  Uiso   1.00
Cl156  Cl    0.30247   0.39820   0.38316   0.00000  Uiso   1.00
Cl157  Cl    0.43297   0.22889   0.01182   0.00000  Uiso   1.00
Cl158  Cl    0.30280   0.27118   0.68134   0.00000  Uiso   1.00
Cl159  Cl    0.43371   0.23063   0.75077   0.00000  Uiso   1.00
Cl160  Cl    0.31280   0.26241   0.93072   0.00000  Uiso   1.00
Cl161  Cl    0.37520   0.36581   0.87521   0.00000  Uiso   1.00
Cl162  Cl    0.42815   0.22920   0.50875   0.00000  Uiso   1.00
Cl163  Cl    0.30183   0.39532   0.64475   0.00000  Uiso   1.00
Cl164  Cl    0.34689   0.47397   0.05596   0.00000  Uiso   1.00
Cl165  Cl    0.42081   0.58060   0.24866   0.00000  Uiso   1.00
Cl166  Cl    0.30577   0.40464   0.12980   0.00000  Uiso   1.00
Cl167  Cl    0.41654   0.43453   0.31742   0.00000  Uiso   1.00
Cl168  Cl    0.42540   0.43610   0.54971   0.00000  Uiso   1.00
Cl169  Cl    0.43451   0.44295   0.79438   0.00000  Uiso   1.00
Cl170  Cl    0.42549   0.58245   0.50961   0.00000  Uiso   1.00
Cl171  Cl    0.41541   0.58538   0.74208   0.00000  Uiso   1.00
Cl172  Cl    0.41708   0.58915   0.99509   0.00000  Uiso   1.00
Cl173  Cl    0.31416   0.60292   0.44202   0.00000  Uiso   1.00
Cl174  Cl    0.29742   0.73480   0.38360   0.00000  Uiso   1.00
Cl175  Cl    0.42866   0.78068   0.03419   0.00000  Uiso   1.00
Cl176  Cl    0.37227   0.70890   0.12254   0.00000  Uiso   1.00
Cl177  Cl    0.30882   0.60317   0.18978   0.00000  Uiso   1.00
Cl178  Cl    0.30038   0.74949   0.62675   0.00000  Uiso   1.00
Cl179  Cl    0.42101   0.77308   0.80406   0.00000  Uiso   1.00
Cl180  Cl    0.29470   0.62338   0.66498   0.00000  Uiso   1.00
Cl181  Cl    0.29081   0.73504   0.88251   0.00000  Uiso   1.00
Cl182  Cl    0.43131   0.78130   0.53624   0.00000  Uiso   1.00
Cl183  Cl    0.29933   0.61681   0.92619   0.00000  Uiso   1.00
Cl184  Cl    0.36487   0.84530   0.16067   0.00000  Uiso   1.00
Cl185  Cl    0.31778   0.91712   0.44102   0.00000  Uiso   1.00
Cl186  Cl    0.36659   0.98590   0.02022   0.00000  Uiso   1.00
Cl187  Cl    0.41573   0.90757   0.24399   0.00000  Uiso   1.00
Cl188  Cl    0.34513   0.80600   0.31915   0.00000  Uiso   1.00
Cl189  Cl    0.30882   0.93928   0.67201   0.00000  Uiso   1.00
Cl190  Cl    0.42817   0.89499   0.76330   0.00000  Uiso   1.00
Cl191  Cl    0.30248   0.94141   0.92228   0.00000  Uiso   1.00
Cl192  Cl    0.43131   0.88951   0.50713   0.00000  Uiso   1.00
Cl193  Cl    0.60356   0.03113   0.12292   0.00000  Uiso   1.00
Cl194  Cl    0.62867   0.13832   0.30771   0.00000  Uiso   1.00
Cl195  Cl    0.62803   0.13672   0.05521   0.00000  Uiso   1.00
Cl196  Cl    0.67484   0.06717   0.37402   0.00000  Uiso   1.00
Cl197  Cl    0.57021   0.08774   0.56903   0.00000  Uiso   1.00
Cl198  Cl    0.55644   0.10579   0.79596   0.00000  Uiso   1.00
Cl199  Cl    0.68250   0.06418   0.63104   0.00000  Uiso   1.00
Cl200  Cl    0.60592   0.02613   0.87152   0.00000  Uiso   1.00
Cl201  Cl    0.60767   0.31008   0.18331   0.00000  Uiso   1.00
Cl202  Cl    0.60730   0.30530   0.43571   0.00000  Uiso   1.00
Cl203  Cl    0.63449   0.21289   0.23873   0.00000  Uiso   1.00
Cl204  Cl    0.67257   0.39982   0.05426   0.00000  Uiso   1.00
Cl205  Cl    0.62701   0.21024   0.99178   0.00000  Uiso   1.00
Cl206  Cl    0.60340   0.30699   0.93376   0.00000  Uiso   1.00
Cl207  Cl    0.68163   0.28178   0.67058   0.00000  Uiso   1.00
Cl208  Cl    0.68281   0.39835   0.54547   0.00000  Uiso   1.00
Cl209  Cl    0.62765   0.20928   0.74288   0.00000  Uiso   1.00
Cl210  Cl    0.55578   0.22118   0.51784   0.00000  Uiso   1.00
Cl211  Cl    0.68512   0.39433   0.79132   0.00000  Uiso   1.00
Cl212  Cl    0.55364   0.57844   0.42939   0.00000  Uiso   1.00
Cl213  Cl    0.55315   0.43161   0.38378   0.00000  Uiso   1.00
Cl214  Cl    0.55361   0.58297   0.17739   0.00000  Uiso   1.00
Cl215  Cl    0.56693   0.42448   0.11194   0.00000  Uiso   1.00
Cl216  Cl    0.67146   0.40798   0.30851   0.00000  Uiso   1.00
Cl217  Cl    0.61329   0.52162   0.65946   0.00000  Uiso   1.00
Cl218  Cl    0.56087   0.42215   0.61318   0.00000  Uiso   1.00
Cl219  Cl    0.55224   0.58088   0.93457   0.00000  Uiso   1.00
Cl220  Cl    0.55387   0.43850   0.87920   0.00000  Uiso   1.00
Cl221  Cl    0.54744   0.78874   0.13078   0.00000  Uiso   1.00
Cl222  Cl    0.66714   0.74905   0.30572   0.00000  Uiso   1.00
Cl223  Cl    0.67548   0.61233   0.25551   0.00000  Uiso   1.00
Cl224  Cl    0.55792   0.77397   0.36688   0.00000  Uiso   1.00
Cl225  Cl    0.59958   0.65190   0.49858   0.00000  Uiso   1.00
Cl226  Cl    0.68108   0.73638   0.78608   0.00000  Uiso   1.00
Cl227  Cl    0.60087   0.70558   0.87586   0.00000  Uiso   1.00
Cl228  Cl    0.67041   0.60724   0.99430   0.00000  Uiso   1.00
Cl229  Cl    0.65251   0.76899   0.57031   0.00000  Uiso   1.00
Cl230  Cl    0.66646   0.60453   0.75087   0.00000  Uiso   1.00
Cl231  Cl    0.63675   0.88111   0.45156   0.00000  Uiso   1.00
Cl232  Cl    0.54783   0.89944   0.16862   0.00000  Uiso   1.00
Cl233  Cl    0.60572   0.96605   0.24823   0.00000  Uiso   1.00
Cl234  Cl    0.61280   0.82764   0.04533   0.00000  Uiso   1.00
Cl235  Cl    0.67295   0.93670   0.00377   0.00000  Uiso   1.00
Cl236  Cl    0.67445   0.93542   0.75229   0.00000  Uiso   1.00
Cl237  Cl    0.56317   0.90987   0.67904   0.00000  Uiso   1.00
Cl238  Cl    0.68684   0.94604   0.50741   0.00000  Uiso   1.00
Cl239  Cl    0.55041   0.90459   0.92457   0.00000  Uiso   1.00
Cl240  Cl    0.53635   0.80183   0.66878   0.00000  Uiso   1.00
Cl241  Cl    0.93048   0.12337   0.39036   0.00000  Uiso   1.00
Cl242  Cl    0.85790   0.15156   0.12604   0.00000  Uiso   1.00
Cl243  Cl    0.87078   0.02860   0.04098   0.00000  Uiso   1.00
Cl244  Cl    0.87372   0.03136   0.29860   0.00000  Uiso   1.00
Cl245  Cl    0.80660   0.07460   0.79241   0.00000  Uiso   1.00
Cl246  Cl    0.86548   0.15821   0.89038   0.00000  Uiso   1.00
Cl247  Cl    0.94061   0.13171   0.64682   0.00000  Uiso   1.00
Cl248  Cl    0.80055   0.07026   0.54097   0.00000  Uiso   1.00
Cl249  Cl    0.80903   0.26289   0.18940   0.00000  Uiso   1.00
Cl250  Cl    0.92934   0.23997   0.24561   0.00000  Uiso   1.00
Cl251  Cl    0.81482   0.25712   0.43433   0.00000  Uiso   1.00
Cl252  Cl    0.93116   0.24095   0.49755   0.00000  Uiso   1.00
Cl253  Cl    0.92683   0.24572   0.00484   0.00000  Uiso   1.00
Cl254  Cl    0.92878   0.23436   0.75074   0.00000  Uiso   1.00
Cl255  Cl    0.80353   0.27452   0.92090   0.00000  Uiso   1.00
Cl256  Cl    0.80708   0.26848   0.67006   0.00000  Uiso   1.00
Cl257  Cl    0.84721   0.54033   0.18566   0.00000  Uiso   1.00
Cl258  Cl    0.92481   0.44671   0.30448   0.00000  Uiso   1.00
Cl259  Cl    0.92436   0.57297   0.42428   0.00000  Uiso   1.00
Cl260  Cl    0.80060   0.40699   0.38262   0.00000  Uiso   1.00
Cl261  Cl    0.92901   0.45041   0.03995   0.00000  Uiso   1.00
Cl262  Cl    0.81141   0.41631   0.11481   0.00000  Uiso   1.00
Cl263  Cl    0.80138   0.59848   0.49021   0.00000  Uiso   1.00
Cl264  Cl    0.93052   0.55854   0.90114   0.00000  Uiso   1.00
Cl265  Cl    0.92947   0.44596   0.80344   0.00000  Uiso   1.00
Cl266  Cl    0.80517   0.41474   0.62498   0.00000  Uiso   1.00
Cl267  Cl    0.93154   0.45219   0.53873   0.00000  Uiso   1.00
Cl268  Cl    0.91531   0.57243   0.67960   0.00000  Uiso   1.00
Cl269  Cl    0.79892   0.40918   0.88533   0.00000  Uiso   1.00
Cl270  Cl    0.87843   0.69820   0.11747   0.00000  Uiso   1.00
Cl271  Cl    0.92259   0.76268   0.05171   0.00000  Uiso   1.00
Cl272  Cl    0.79519   0.72095   0.39502   0.00000  Uiso   1.00
Cl273  Cl    0.79917   0.60302   0.24761   0.00000  Uiso   1.00
Cl274  Cl    0.84952   0.79101   0.30718   0.00000  Uiso   1.00
Cl275  Cl    0.91436   0.75142   0.80807   0.00000  Uiso   1.00
Cl276  Cl    0.92484   0.76237   0.55628   0.00000  Uiso   1.00
Cl277  Cl    0.80272   0.73572   0.87481   0.00000  Uiso   1.00
Cl278  Cl    0.78784   0.61690   0.76984   0.00000  Uiso   1.00
Cl279  Cl    0.80049   0.73806   0.62180   0.00000  Uiso   1.00
Cl280  Cl    0.87682   0.63980   0.99631   0.00000  Uiso   1.00
Cl281  Cl    0.79371   0.95150   0.16810   0.00000  Uiso   1.00
Cl282  Cl    0.80496   0.93792   0.42988   0.00000  Uiso   1.00
Cl283  Cl    0.93411   0.90312   0.26128   0.00000  Uiso   1.00
Cl284  Cl    0.93203   0.89736   0.02750   0.00000  Uiso   1.00
Cl285  Cl    0.79478   0.94690   0.66450   0.00000  Uiso   1.00
Cl286  Cl    0.85201   0.87788   0.73927   0.00000  Uiso   1.00
Cl287  Cl    0.88112   0.96227   0.94436   0.00000  Uiso   1.00
Cl288  Cl    0.93154   0.90457   0.50974   0.00000  Uiso   1.00
H289   H     0.13110   0.13293   0.28105   0.00000  Uiso   1.00
H290   H     0.09029   0.04898   0.14138   0.00000  Uiso   1.00
H291   H     0.10050   0.04662   0.39699   0.00000  Uiso   1.00
H292   H     0.13355   0.13093   0.03099   0.00000  Uiso   1.00
H293   H     0.24915   0.13264   0.33532   0.00000  Uiso   1.00
H294   H     0.23778   0.12907   0.08360   0.00000  Uiso   1.00
H295   H     0.00038   0.05074   0.34768   0.00000  Uiso   1.00
H296   H     0.14376   0.12137   0.78151   0.00000  Uiso   1.00
H297   H     0.10695   0.03474   0.64840   0.00000  Uiso   1.00
H298   H     0.10517   0.03782   0.90254   0.00000  Uiso   1.00
H299   H     0.13432   0.12915   0.53340   0.00000  Uiso   1.00
H300   H     0.23978   0.12800   0.58094   0.00000  Uiso   1.00
H301   H     0.24836   0.13252   0.84042   0.00000  Uiso   1.00
H302   H     0.09350   0.39012   0.28468   0.00000  Uiso   1.00
H303   H     0.23116   0.22089   0.46364   0.00000  Uiso   1.00
H304   H     0.08748   0.39563   0.03649   0.00000  Uiso   1.00
H305   H     0.06281   0.25571   0.15838   0.00000  Uiso   1.00
H306   H     0.11185   0.31702   0.27798   0.00000  Uiso   1.00
H307   H     0.13067   0.21472   0.39435   0.00000  Uiso   1.00
H308   H     0.16093   0.26145   0.01704   0.00000  Uiso   1.00
H309   H     0.00315   0.30173   0.21753   0.00000  Uiso   1.00
H310   H     0.10310   0.37926   0.54105   0.00000  Uiso   1.00
H311   H     0.24305   0.21760   0.96354   0.00000  Uiso   1.00
H312   H     0.10747   0.31139   0.76926   0.00000  Uiso   1.00
H313   H     0.12614   0.21921   0.90195   0.00000  Uiso   1.00
H314   H     0.10432   0.37786   0.77846   0.00000  Uiso   1.00
H315   H     0.10146   0.31155   0.52355   0.00000  Uiso   1.00
H316   H     0.13415   0.22378   0.65849   0.00000  Uiso   1.00
H317   H     0.23310   0.21753   0.71034   0.00000  Uiso   1.00
H318   H     0.00240   0.30045   0.96670   0.00000  Uiso   1.00
H319   H     0.12455   0.53805   0.40880   0.00000  Uiso   1.00
H320   H     0.12937   0.54118   0.16547   0.00000  Uiso   1.00
H321   H     0.13093   0.46909   0.14719   0.00000  Uiso   1.00
H322   H     0.13719   0.46330   0.39884   0.00000  Uiso   1.00
H323   H     0.24449   0.45911   0.34062   0.00000  Uiso   1.00
H324   H     0.22865   0.54573   0.46135   0.00000  Uiso   1.00
H325   H     0.23336   0.46005   0.09629   0.00000  Uiso   1.00
H326   H     0.24142   0.55043   0.22003   0.00000  Uiso   1.00
H327   H     0.12812   0.54290   0.91314   0.00000  Uiso   1.00
H328   H     0.13156   0.53745   0.65527   0.00000  Uiso   1.00
H329   H     0.12549   0.46674   0.63976   0.00000  Uiso   1.00
H330   H     0.14246   0.44873   0.88226   0.00000  Uiso   1.00
H331   H     0.23156   0.55196   0.71294   0.00000  Uiso   1.00
H332   H     0.23435   0.46323   0.59251   0.00000  Uiso   1.00
H333   H     0.23491   0.55189   0.97011   0.00000  Uiso   1.00
H334   H     0.23659   0.46541   0.84166   0.00000  Uiso   1.00
H335   H     0.16537   0.74211   0.41549   0.00000  Uiso   1.00
H336   H     0.24300   0.79538   0.09448   0.00000  Uiso   1.00
H337   H     0.10621   0.69703   0.01897   0.00000  Uiso   1.00
H338   H     0.08936   0.71896   0.28981   0.00000  Uiso   1.00
H339   H     0.13809   0.78170   0.13487   0.00000  Uiso   1.00
H340   H     0.09120   0.61562   0.26546   0.00000  Uiso   1.00
H341   H     0.09456   0.61955   0.01946   0.00000  Uiso   1.00
H342   H     0.22719   0.79517   0.34302   0.00000  Uiso   1.00
H343   H     0.09682   0.62157   0.52123   0.00000  Uiso   1.00
H344   H     0.24065   0.79994   0.59326   0.00000  Uiso   1.00
H345   H     0.09404   0.70994   0.78394   0.00000  Uiso   1.00
H346   H     0.05447   0.76735   0.52599   0.00000  Uiso   1.00
H347   H     0.08553   0.61394   0.75980   0.00000  Uiso   1.00
H348   H     0.24844   0.79771   0.84284   0.00000  Uiso   1.00
H349   H     0.12694   0.79605   0.89526   0.00000  Uiso   1.00
H350   H     0.13077   0.79310   0.64391   0.00000  Uiso   1.00
H351   H     0.07708   0.93784   0.17434   0.00000  Uiso   1.00
H352   H     0.16030   0.92503   0.02163   0.00000  Uiso   1.00
H353   H     0.10657   0.97760   0.27499   0.00000  Uiso   1.00
H354   H     0.13243   0.88445   0.40949   0.00000  Uiso   1.00
H355   H     0.24277   0.88742   0.46681   0.00000  Uiso   1.00
H356   H     0.24188   0.88316   0.21588   0.00000  Uiso   1.00
H357   H     0.06457   0.92066   0.66037   0.00000  Uiso   1.00
H358   H     0.16915   0.94124   0.53314   0.00000  Uiso   1.00
H359   H     0.12839   0.88375   0.90470   0.00000  Uiso   1.00
H360   H     0.10489   0.97583   0.76761   0.00000  Uiso   1.00
H361   H     0.24740   0.88331   0.72232   0.00000  Uiso   1.00
H362   H     0.23270   0.88615   0.96887   0.00000  Uiso   1.00
H363   H     0.49496   0.04876   0.09126   0.00000  Uiso   1.00
H364   H     0.42099   0.10066   0.15551   0.00000  Uiso   1.00
H365   H     0.41053   0.08959   0.39299   0.00000  Uiso   1.00
H366   H     0.31370   0.08487   0.27836   0.00000  Uiso   1.00
H367   H     0.38884   0.06334   0.04013   0.00000  Uiso   1.00
H368   H     0.49456   0.04494   0.33818   0.00000  Uiso   1.00
H369   H     0.32195   0.10106   0.54310   0.00000  Uiso   1.00
H370   H     0.42296   0.10265   0.65047   0.00000  Uiso   1.00
H371   H     0.31789   0.09472   0.77981   0.00000  Uiso   1.00
H372   H     0.35560   0.14493   0.89874   0.00000  Uiso   1.00
H373   H     0.49689   0.04811   0.83756   0.00000  Uiso   1.00
H374   H     0.48812   0.05532   0.58827   0.00000  Uiso   1.00
H375   H     0.49126   0.38532   0.09241   0.00000  Uiso   1.00
H376   H     0.37927   0.29303   0.15989   0.00000  Uiso   1.00
H377   H     0.38146   0.29400   0.40590   0.00000  Uiso   1.00
H378   H     0.35331   0.20729   0.02095   0.00000  Uiso   1.00
H379   H     0.38595   0.38140   0.15036   0.00000  Uiso   1.00
H380   H     0.25209   0.21580   0.20625   0.00000  Uiso   1.00
H381   H     0.35186   0.20595   0.27121   0.00000  Uiso   1.00
H382   H     0.37825   0.37423   0.39622   0.00000  Uiso   1.00
H383   H     0.49830   0.29176   0.21762   0.00000  Uiso   1.00
H384   H     0.38406   0.28565   0.66943   0.00000  Uiso   1.00
H385   H     0.49300   0.37782   0.59521   0.00000  Uiso   1.00
H386   H     0.37745   0.36783   0.65941   0.00000  Uiso   1.00
H387   H     0.39007   0.28302   0.91579   0.00000  Uiso   1.00
H388   H     0.34334   0.21620   0.51750   0.00000  Uiso   1.00
H389   H     0.49538   0.29594   0.97220   0.00000  Uiso   1.00
H390   H     0.48483   0.38663   0.84458   0.00000  Uiso   1.00
H391   H     0.35493   0.20856   0.76731   0.00000  Uiso   1.00
H392   H     0.34267   0.45716   0.29189   0.00000  Uiso   1.00
H393   H     0.35096   0.55481   0.27157   0.00000  Uiso   1.00
H394   H     0.33960   0.56133   0.01813   0.00000  Uiso   1.00
H395   H     0.41295   0.43138   0.03587   0.00000  Uiso   1.00
H396   H     0.35729   0.47137   0.77783   0.00000  Uiso   1.00
H397   H     0.34559   0.55393   0.76569   0.00000  Uiso   1.00
H398   H     0.34905   0.46320   0.53445   0.00000  Uiso   1.00
H399   H     0.35229   0.55024   0.52906   0.00000  Uiso   1.00
H400   H     0.31040   0.40953   0.89961   0.00000  Uiso   1.00
H401   H     0.48035   0.72484   0.08540   0.00000  Uiso   1.00
H402   H     0.41049   0.76213   0.29027   0.00000  Uiso   1.00
H403   H     0.38257   0.63594   0.41478   0.00000  Uiso   1.00
H404   H     0.37023   0.71087   0.39826   0.00000  Uiso   1.00
H405   H     0.31112   0.75386   0.15444   0.00000  Uiso   1.00
H406   H     0.48295   0.63668   0.21398   0.00000  Uiso   1.00
H407   H     0.38613   0.62504   0.17251   0.00000  Uiso   1.00
H408   H     0.48326   0.63981   0.47005   0.00000  Uiso   1.00
H409   H     0.48315   0.72749   0.33487   0.00000  Uiso   1.00
H410   H     0.37346   0.64751   0.65416   0.00000  Uiso   1.00
H411   H     0.48425   0.72718   0.59090   0.00000  Uiso   1.00
H412   H     0.37444   0.71609   0.64663   0.00000  Uiso   1.00
H413   H     0.37829   0.64112   0.90668   0.00000  Uiso   1.00
H414   H     0.37088   0.71515   0.88956   0.00000  Uiso   1.00
H415   H     0.48086   0.71955   0.83595   0.00000  Uiso   1.00
H416   H     0.48302   0.63273   0.70606   0.00000  Uiso   1.00
H417   H     0.46723   0.64034   0.96595   0.00000  Uiso   1.00
H418   H     0.30672   0.92990   0.03586   0.00000  Uiso   1.00
H419   H     0.39442   0.94207   0.42366   0.00000  Uiso   1.00
H420   H     0.34405   0.88365   0.26766   0.00000  Uiso   1.00
H421   H     0.35302   0.80743   0.02056   0.00000  Uiso   1.00
H422   H     0.42360   0.89953   0.13573   0.00000  Uiso   1.00
H423   H     0.48253   0.95286   0.21549   0.00000  Uiso   1.00
H424   H     0.49825   0.96089   0.47014   0.00000  Uiso   1.00
H425   H     0.38721   0.95646   0.66164   0.00000  Uiso   1.00
H426   H     0.38271   0.95854   0.91146   0.00000  Uiso   1.00
H427   H     0.34835   0.87188   0.77516   0.00000  Uiso   1.00
H428   H     0.35693   0.86354   0.53278   0.00000  Uiso   1.00
H429   H     0.49296   0.95719   0.96446   0.00000  Uiso   1.00
H430   H     0.49289   0.95855   0.71254   0.00000  Uiso   1.00
H431   H     0.35137   0.80747   0.52427   0.00000  Uiso   1.00
H432   H     0.34484   0.80013   0.79018   0.00000  Uiso   1.00
H433   H     0.60223   0.04696   0.39657   0.00000  Uiso   1.00
H434   H     0.66758   0.07285   0.15182   0.00000  Uiso   1.00
H435   H     0.57296   0.08417   0.29550   0.00000  Uiso   1.00
H436   H     0.57033   0.08465   0.03434   0.00000  Uiso   1.00
H437   H     0.74692   0.13000   0.58125   0.00000  Uiso   1.00
H438   H     0.63701   0.12949   0.78082   0.00000  Uiso   1.00
H439   H     0.60860   0.03235   0.65396   0.00000  Uiso   1.00
H440   H     0.66655   0.07541   0.88888   0.00000  Uiso   1.00
H441   H     0.64633   0.10938   0.54962   0.00000  Uiso   1.00
H442   H     0.74130   0.12825   0.83907   0.00000  Uiso   1.00
H443   H     0.57083   0.26236   0.01664   0.00000  Uiso   1.00
H444   H     0.66606   0.26213   0.15644   0.00000  Uiso   1.00
H445   H     0.57463   0.25771   0.26524   0.00000  Uiso   1.00
H446   H     0.66570   0.25606   0.41185   0.00000  Uiso   1.00
H447   H     0.59180   0.39187   0.28989   0.00000  Uiso   1.00
H448   H     0.74336   0.21831   0.45637   0.00000  Uiso   1.00
H449   H     0.59960   0.37050   0.03136   0.00000  Uiso   1.00
H450   H     0.50152   0.28938   0.46899   0.00000  Uiso   1.00
H451   H     0.50392   0.37779   0.34230   0.00000  Uiso   1.00
H452   H     0.74391   0.21353   0.20576   0.00000  Uiso   1.00
H453   H     0.63404   0.20217   0.53591   0.00000  Uiso   1.00
H454   H     0.60888   0.31100   0.63994   0.00000  Uiso   1.00
H455   H     0.60438   0.36874   0.77709   0.00000  Uiso   1.00
H456   H     0.57201   0.25599   0.76627   0.00000  Uiso   1.00
H457   H     0.66647   0.26755   0.90821   0.00000  Uiso   1.00
H458   H     0.60461   0.36683   0.53430   0.00000  Uiso   1.00
H459   H     0.74319   0.21860   0.96156   0.00000  Uiso   1.00
H460   H     0.74888   0.21750   0.70821   0.00000  Uiso   1.00
H461   H     0.50083   0.29214   0.72431   0.00000  Uiso   1.00
H462   H     0.74073   0.46049   0.09062   0.00000  Uiso   1.00
H463   H     0.64219   0.43886   0.13401   0.00000  Uiso   1.00
H464   H     0.72988   0.55287   0.21459   0.00000  Uiso   1.00
H465   H     0.62823   0.45563   0.39499   0.00000  Uiso   1.00
H466   H     0.62822   0.55746   0.15873   0.00000  Uiso   1.00
H467   H     0.62257   0.53763   0.38974   0.00000  Uiso   1.00
H468   H     0.73811   0.55061   0.46250   0.00000  Uiso   1.00
H469   H     0.74883   0.46490   0.33636   0.00000  Uiso   1.00
H470   H     0.62831   0.46035   0.89683   0.00000  Uiso   1.00
H471   H     0.55757   0.58028   0.65053   0.00000  Uiso   1.00
H472   H     0.73979   0.54895   0.71244   0.00000  Uiso   1.00
H473   H     0.62628   0.55157   0.91247   0.00000  Uiso   1.00
H474   H     0.63846   0.44858   0.63567   0.00000  Uiso   1.00
H475   H     0.74731   0.46190   0.58402   0.00000  Uiso   1.00
H476   H     0.73608   0.55096   0.96554   0.00000  Uiso   1.00
H477   H     0.73750   0.46069   0.83619   0.00000  Uiso   1.00
H478   H     0.65536   0.59460   0.51116   0.00000  Uiso   1.00
H479   H     0.55357   0.77720   0.01783   0.00000  Uiso   1.00
H480   H     0.60484   0.64254   0.28018   0.00000  Uiso   1.00
H481   H     0.58803   0.72589   0.28291   0.00000  Uiso   1.00
H482   H     0.73914   0.78761   0.34568   0.00000  Uiso   1.00
H483   H     0.59716   0.64036   0.01704   0.00000  Uiso   1.00
H484   H     0.58933   0.62110   0.76278   0.00000  Uiso   1.00
H485   H     0.66194   0.75204   0.90275   0.00000  Uiso   1.00
H486   H     0.60779   0.70296   0.75937   0.00000  Uiso   1.00
H487   H     0.57819   0.74652   0.54622   0.00000  Uiso   1.00
H488   H     0.73016   0.79229   0.59718   0.00000  Uiso   1.00
H489   H     0.72556   0.79420   0.85061   0.00000  Uiso   1.00
H490   H     0.62324   0.81128   0.14805   0.00000  Uiso   1.00
H491   H     0.62561   0.87747   0.15915   0.00000  Uiso   1.00
H492   H     0.74443   0.87817   0.46502   0.00000  Uiso   1.00
H493   H     0.57827   0.92841   0.42382   0.00000  Uiso   1.00
H494   H     0.66625   0.91728   0.27816   0.00000  Uiso   1.00
H495   H     0.60372   0.97164   0.03179   0.00000  Uiso   1.00
H496   H     0.73893   0.88390   0.22315   0.00000  Uiso   1.00
H497   H     0.73199   0.80067   0.09366   0.00000  Uiso   1.00
H498   H     0.62934   0.80490   0.39328   0.00000  Uiso   1.00
H499   H     0.63725   0.88564   0.66030   0.00000  Uiso   1.00
H500   H     0.60244   0.96529   0.77474   0.00000  Uiso   1.00
H501   H     0.63151   0.87829   0.91069   0.00000  Uiso   1.00
H502   H     0.73721   0.88527   0.96682   0.00000  Uiso   1.00
H503   H     0.60782   0.97246   0.52263   0.00000  Uiso   1.00
H504   H     0.73640   0.88054   0.72244   0.00000  Uiso   1.00
H505   H     0.62042   0.82065   0.66723   0.00000  Uiso   1.00
H506   H     0.92277   0.10636   0.15061   0.00000  Uiso   1.00
H507   H     0.81100   0.07903   0.02052   0.00000  Uiso   1.00
H508   H     0.81338   0.08180   0.27409   0.00000  Uiso   1.00
H509   H     0.85452   0.14690   0.40613   0.00000  Uiso   1.00
H510   H     0.99626   0.05167   0.09971   0.00000  Uiso   1.00
H511   H     0.75435   0.12841   0.08575   0.00000  Uiso   1.00
H512   H     0.75014   0.12868   0.33605   0.00000  Uiso   1.00
H513   H     0.88256   0.05459   0.78310   0.00000  Uiso   1.00
H514   H     0.92348   0.10735   0.90254   0.00000  Uiso   1.00
H515   H     0.86192   0.15648   0.66092   0.00000  Uiso   1.00
H516   H     0.88041   0.04616   0.53027   0.00000  Uiso   1.00
H517   H     0.99946   0.05175   0.84647   0.00000  Uiso   1.00
H518   H     0.99845   0.05563   0.59969   0.00000  Uiso   1.00
H519   H     0.85184   0.21569   0.02180   0.00000  Uiso   1.00
H520   H     0.87397   0.30325   0.16260   0.00000  Uiso   1.00
H521   H     0.88799   0.29277   0.40859   0.00000  Uiso   1.00
H522   H     0.99887   0.39047   0.34267   0.00000  Uiso   1.00
H523   H     0.88670   0.38909   0.13937   0.00000  Uiso   1.00
H524   H     0.87276   0.38427   0.40198   0.00000  Uiso   1.00
H525   H     0.85312   0.21186   0.26713   0.00000  Uiso   1.00
H526   H     0.99817   0.39282   0.08985   0.00000  Uiso   1.00
H527   H     0.99006   0.29820   0.47144   0.00000  Uiso   1.00
H528   H     0.85384   0.21218   0.76612   0.00000  Uiso   1.00
H529   H     0.88221   0.29282   0.65772   0.00000  Uiso   1.00
H530   H     0.99208   0.38957   0.59213   0.00000  Uiso   1.00
H531   H     0.88243   0.30085   0.89940   0.00000  Uiso   1.00
H532   H     0.87819   0.38557   0.64361   0.00000  Uiso   1.00
H533   H     0.85730   0.20816   0.51618   0.00000  Uiso   1.00
H534   H     0.99051   0.38616   0.84199   0.00000  Uiso   1.00
H535   H     0.87046   0.37604   0.90392   0.00000  Uiso   1.00
H536   H     0.98604   0.29542   0.71341   0.00000  Uiso   1.00
H537   H     0.81146   0.59632   0.02527   0.00000  Uiso   1.00
H538   H     0.84778   0.46844   0.28297   0.00000  Uiso   1.00
H539   H     0.85152   0.54124   0.40290   0.00000  Uiso   1.00
H540   H     0.91407   0.57650   0.15106   0.00000  Uiso   1.00
H541   H     0.85979   0.48373   0.01430   0.00000  Uiso   1.00
H542   H     0.85379   0.47420   0.78138   0.00000  Uiso   1.00
H543   H     0.85333   0.53358   0.89067   0.00000  Uiso   1.00
H544   H     0.84593   0.53978   0.64664   0.00000  Uiso   1.00
H545   H     0.85575   0.48233   0.52525   0.00000  Uiso   1.00
H546   H     0.90814   0.74748   0.28263   0.00000  Uiso   1.00
H547   H     0.87522   0.69647   0.40665   0.00000  Uiso   1.00
H548   H     0.87625   0.63020   0.26668   0.00000  Uiso   1.00
H549   H     0.81156   0.74249   0.14178   0.00000  Uiso   1.00
H550   H     0.97564   0.62356   0.20682   0.00000  Uiso   1.00
H551   H     0.97868   0.70962   0.08517   0.00000  Uiso   1.00
H552   H     0.97266   0.71086   0.33566   0.00000  Uiso   1.00
H553   H     0.98032   0.62119   0.46424   0.00000  Uiso   1.00
H554   H     0.84753   0.78989   0.03756   0.00000  Uiso   1.00
H555   H     0.99028   0.71247   0.58948   0.00000  Uiso   1.00
H556   H     0.97627   0.70829   0.83752   0.00000  Uiso   1.00
H557   H     0.97925   0.62087   0.96078   0.00000  Uiso   1.00
H558   H     0.87373   0.70820   0.63849   0.00000  Uiso   1.00
H559   H     0.86819   0.63838   0.77525   0.00000  Uiso   1.00
H560   H     0.87536   0.70611   0.89318   0.00000  Uiso   1.00
H561   H     0.98161   0.62444   0.70433   0.00000  Uiso   1.00
H562   H     0.87437   0.63158   0.51562   0.00000  Uiso   1.00
H563   H     0.84026   0.78079   0.79229   0.00000  Uiso   1.00
H564   H     0.84805   0.78388   0.54818   0.00000  Uiso   1.00
H565   H     0.88379   0.95851   0.42173   0.00000  Uiso   1.00
H566   H     0.85034   0.88090   0.02463   0.00000  Uiso   1.00
H567   H     0.85460   0.88450   0.26774   0.00000  Uiso   1.00
H568   H     0.87537   0.97355   0.16066   0.00000  Uiso   1.00
H569   H     0.99707   0.96186   0.22334   0.00000  Uiso   1.00
H570   H     0.99271   0.96282   0.47457   0.00000  Uiso   1.00
H571   H     0.87431   0.97614   0.65291   0.00000  Uiso   1.00
H572   H     0.85503   0.87266   0.53030   0.00000  Uiso   1.00
H573   H     0.91636   0.91771   0.77501   0.00000  Uiso   1.00
H574   H     0.82080   0.92104   0.91067   0.00000  Uiso   1.00
H575   H     0.99562   0.96279   0.97105   0.00000  Uiso   1.00
H576   H     0.98496   0.96475   0.72526   0.00000  Uiso   1.00
C577   C     0.14441   0.08020   0.42723   0.00000  Uiso   1.00
C578   C     0.10915   0.06340   0.42994   0.00000  Uiso   1.00
C579   C     0.08731   0.09391   0.25367   0.00000  Uiso   1.00
C580   C     0.12320   0.11147   0.25199   0.00000  Uiso   1.00
C581   C     0.04254   0.04601   0.21833   0.00000  Uiso   1.00
C582   C     0.07712   0.06883   0.21631   0.00000  Uiso   1.00
C583   C     0.18625   0.12708   0.21069   0.00000  Uiso   1.00
C584   C     0.14812   0.10706   0.20987   0.00000  Uiso   1.00
C585   C     0.09875   0.06783   0.17130   0.00000  Uiso   1.00
C586   C     0.13533   0.08669   0.16729   0.00000  Uiso   1.00
C587   C     0.04536   0.04854   0.46968   0.00000  Uiso   1.00
C588   C     0.08324   0.06813   0.46951   0.00000  Uiso   1.00
C589   C     0.18935   0.12807   0.46545   0.00000  Uiso   1.00
C590   C     0.15438   0.10556   0.46595   0.00000  Uiso   1.00
C591   C     0.08852   0.09668   0.00375   0.00000  Uiso   1.00
C592   C     0.12572   0.11254   0.00151   0.00000  Uiso   1.00
C593   C     0.10699   0.06005   0.92963   0.00000  Uiso   1.00
C594   C     0.14348   0.07887   0.92826   0.00000  Uiso   1.00
C595   C     0.09903   0.08481   0.75821   0.00000  Uiso   1.00
C596   C     0.13627   0.10103   0.75589   0.00000  Uiso   1.00
C597   C     0.04815   0.04392   0.71795   0.00000  Uiso   1.00
C598   C     0.08771   0.06165   0.71762   0.00000  Uiso   1.00
C599   C     0.19485   0.12197   0.71089   0.00000  Uiso   1.00
C600   C     0.16001   0.09825   0.71229   0.00000  Uiso   1.00
C601   C     0.11428   0.05543   0.67605   0.00000  Uiso   1.00
C602   C     0.14998   0.07359   0.67462   0.00000  Uiso   1.00
C603   C     0.04212   0.04980   0.96817   0.00000  Uiso   1.00
C604   C     0.07831   0.07075   0.96622   0.00000  Uiso   1.00
C605   C     0.18866   0.12713   0.96149   0.00000  Uiso   1.00
C606   C     0.15334   0.10566   0.96330   0.00000  Uiso   1.00
C607   C     0.12825   0.11222   0.50560   0.00000  Uiso   1.00
C608   C     0.09369   0.09098   0.50983   0.00000  Uiso   1.00
C609   C     0.11841   0.23549   0.12964   0.00000  Uiso   1.00
C610   C     0.08505   0.25729   0.12760   0.00000  Uiso   1.00
C611   C     0.18415   0.21927   0.08976   0.00000  Uiso   1.00
C612   C     0.14663   0.23916   0.08993   0.00000  Uiso   1.00
C613   C     0.04218   0.30190   0.08636   0.00000  Uiso   1.00
C614   C     0.07858   0.28060   0.08500   0.00000  Uiso   1.00
C615   C     0.14002   0.26070   0.04787   0.00000  Uiso   1.00
C616   C     0.10581   0.28085   0.04385   0.00000  Uiso   1.00
C617   C     0.04068   0.39083   0.21157   0.00000  Uiso   1.00
C618   C     0.14878   0.27708   0.30265   0.00000  Uiso   1.00
C619   C     0.11368   0.29359   0.30234   0.00000  Uiso   1.00
C620   C     0.19222   0.22524   0.33447   0.00000  Uiso   1.00
C621   C     0.15609   0.24845   0.33439   0.00000  Uiso   1.00
C622   C     0.04823   0.30737   0.34235   0.00000  Uiso   1.00
C623   C     0.08511   0.28539   0.33839   0.00000  Uiso   1.00
C624   C     0.12709   0.23981   0.37115   0.00000  Uiso   1.00
C625   C     0.09124   0.25835   0.37237   0.00000  Uiso   1.00
C626   C     0.04576   0.38072   0.46647   0.00000  Uiso   1.00
C627   C     0.10944   0.39621   0.74707   0.00000  Uiso   1.00
C628   C     0.14752   0.27589   0.55560   0.00000  Uiso   1.00
C629   C     0.10971   0.29229   0.55440   0.00000  Uiso   1.00
C630   C     0.18989   0.22557   0.59039   0.00000  Uiso   1.00
C631   C     0.15609   0.25103   0.59229   0.00000  Uiso   1.00
C632   C     0.04400   0.30551   0.59019   0.00000  Uiso   1.00
C633   C     0.08127   0.28599   0.59222   0.00000  Uiso   1.00
C634   C     0.12771   0.24399   0.62988   0.00000  Uiso   1.00
C635   C     0.08981   0.26139   0.63130   0.00000  Uiso   1.00
C636   C     0.04252   0.38226   0.71546   0.00000  Uiso   1.00
C637   C     0.14582   0.27372   0.79972   0.00000  Uiso   1.00
C638   C     0.11064   0.29139   0.79743   0.00000  Uiso   1.00
C639   C     0.18815   0.22258   0.83626   0.00000  Uiso   1.00
C640   C     0.15343   0.24593   0.83723   0.00000  Uiso   1.00
C641   C     0.04515   0.30325   0.83587   0.00000  Uiso   1.00
C642   C     0.08094   0.28145   0.83199   0.00000  Uiso   1.00
C643   C     0.12424   0.24001   0.87408   0.00000  Uiso   1.00
C644   C     0.08726   0.25642   0.86822   0.00000  Uiso   1.00
C645   C     0.04092   0.38403   0.96110   0.00000  Uiso   1.00
C646   C     0.10858   0.39688   0.50891   0.00000  Uiso   1.00
C647   C     0.13791   0.58411   0.05265   0.00000  Uiso   1.00
C648   C     0.08911   0.43269   0.17336   0.00000  Uiso   1.00
C649   C     0.07393   0.59746   0.33839   0.00000  Uiso   1.00
C650   C     0.08444   0.57521   0.37910   0.00000  Uiso   1.00
C651   C     0.11801   0.55573   0.37838   0.00000  Uiso   1.00
C652   C     0.13625   0.42453   0.00389   0.00000  Uiso   1.00
C653   C     0.18488   0.53942   0.09486   0.00000  Uiso   1.00
C654   C     0.14779   0.56062   0.09216   0.00000  Uiso   1.00
C655   C     0.12027   0.55685   0.13256   0.00000  Uiso   1.00
C656   C     0.12391   0.45100   0.17907   0.00000  Uiso   1.00
C657   C     0.07246   0.59411   0.09021   0.00000  Uiso   1.00
C658   C     0.18463   0.46969   0.22094   0.00000  Uiso   1.00
C659   C     0.14781   0.44847   0.22178   0.00000  Uiso   1.00
C660   C     0.08213   0.57126   0.12978   0.00000  Uiso   1.00
C661   C     0.07753   0.41139   0.21304   0.00000  Uiso   1.00
C662   C     0.10288   0.40586   0.25304   0.00000  Uiso   1.00
C663   C     0.18310   0.53931   0.33933   0.00000  Uiso   1.00
C664   C     0.14618   0.56083   0.33872   0.00000  Uiso   1.00
C665   C     0.13638   0.58418   0.29811   0.00000  Uiso   1.00
C666   C     0.12841   0.44513   0.43063   0.00000  Uiso   1.00
C667   C     0.09424   0.42377   0.42556   0.00000  Uiso   1.00
C668   C     0.18933   0.46402   0.47310   0.00000  Uiso   1.00
C669   C     0.15186   0.44165   0.47230   0.00000  Uiso   1.00
C670   C     0.13789   0.42374   0.25880   0.00000  Uiso   1.00
C671   C     0.08282   0.40280   0.46692   0.00000  Uiso   1.00
C672   C     0.09873   0.59854   0.29700   0.00000  Uiso   1.00
C673   C     0.09928   0.40866   0.00474   0.00000  Uiso   1.00
C674   C     0.09390   0.42193   0.91645   0.00000  Uiso   1.00
C675   C     0.07864   0.40549   0.95988   0.00000  Uiso   1.00
C676   C     0.12139   0.55958   0.88209   0.00000  Uiso   1.00
C677   C     0.07580   0.59688   0.58769   0.00000  Uiso   1.00
C678   C     0.14235   0.58994   0.55138   0.00000  Uiso   1.00
C679   C     0.12196   0.44643   0.67253   0.00000  Uiso   1.00
C680   C     0.08564   0.42752   0.67110   0.00000  Uiso   1.00
C681   C     0.14421   0.41567   0.74707   0.00000  Uiso   1.00
C682   C     0.18796   0.54414   0.59001   0.00000  Uiso   1.00
C683   C     0.15185   0.56622   0.59106   0.00000  Uiso   1.00
C684   C     0.12380   0.55926   0.62719   0.00000  Uiso   1.00
C685   C     0.08686   0.57511   0.62945   0.00000  Uiso   1.00
C686   C     0.18679   0.46655   0.71125   0.00000  Uiso   1.00
C687   C     0.15057   0.44273   0.71025   0.00000  Uiso   1.00
C688   C     0.18504   0.54675   0.84164   0.00000  Uiso   1.00
C689   C     0.14673   0.56457   0.83939   0.00000  Uiso   1.00
C690   C     0.13059   0.43907   0.91806   0.00000  Uiso   1.00
C691   C     0.08577   0.57779   0.88122   0.00000  Uiso   1.00
C692   C     0.18734   0.46770   0.96503   0.00000  Uiso   1.00
C693   C     0.15108   0.44417   0.96191   0.00000  Uiso   1.00
C694   C     0.13456   0.58386   0.79590   0.00000  Uiso   1.00
C695   C     0.07948   0.40280   0.71215   0.00000  Uiso   1.00
C696   C     0.14199   0.41648   0.51104   0.00000  Uiso   1.00
C697   C     0.09590   0.59770   0.79455   0.00000  Uiso   1.00
C698   C     0.07013   0.59369   0.83688   0.00000  Uiso   1.00
C699   C     0.14005   0.74863   0.43773   0.00000  Uiso   1.00
C700   C     0.03941   0.61956   0.09098   0.00000  Uiso   1.00
C701   C     0.14511   0.77663   0.47384   0.00000  Uiso   1.00
C702   C     0.08876   0.75306   0.16769   0.00000  Uiso   1.00
C703   C     0.12572   0.77063   0.16903   0.00000  Uiso   1.00
C704   C     0.03967   0.71178   0.21160   0.00000  Uiso   1.00
C705   C     0.07624   0.73182   0.21048   0.00000  Uiso   1.00
C706   C     0.14601   0.77366   0.21319   0.00000  Uiso   1.00
C707   C     0.03979   0.62241   0.33895   0.00000  Uiso   1.00
C708   C     0.09852   0.73277   0.25589   0.00000  Uiso   1.00
C709   C     0.13116   0.75529   0.25723   0.00000  Uiso   1.00
C710   C     0.10703   0.72804   0.43388   0.00000  Uiso   1.00
C711   C     0.03847   0.71157   0.46191   0.00000  Uiso   1.00
C712   C     0.07447   0.73478   0.46429   0.00000  Uiso   1.00
C713   C     0.10061   0.60131   0.05123   0.00000  Uiso   1.00
C714   C     0.18336   0.79481   0.21483   0.00000  Uiso   1.00
C715   C     0.07924   0.76214   0.49990   0.00000  Uiso   1.00
C716   C     0.09050   0.75193   0.91523   0.00000  Uiso   1.00
C717   C     0.04371   0.70466   0.95622   0.00000  Uiso   1.00
C718   C     0.12577   0.77281   0.92017   0.00000  Uiso   1.00
C719   C     0.04072   0.61982   0.58943   0.00000  Uiso   1.00
C720   C     0.15202   0.76992   0.71695   0.00000  Uiso   1.00
C721   C     0.08801   0.75923   0.67669   0.00000  Uiso   1.00
C722   C     0.12418   0.77503   0.67617   0.00000  Uiso   1.00
C723   C     0.03946   0.71437   0.71527   0.00000  Uiso   1.00
C724   C     0.07710   0.73441   0.71572   0.00000  Uiso   1.00
C725   C     0.15399   0.76465   0.95718   0.00000  Uiso   1.00
C726   C     0.03405   0.61698   0.83611   0.00000  Uiso   1.00
C727   C     0.18740   0.79017   0.96417   0.00000  Uiso   1.00
C728   C     0.10334   0.72804   0.75541   0.00000  Uiso   1.00
C729   C     0.13973   0.74775   0.75863   0.00000  Uiso   1.00
C730   C     0.08193   0.72666   0.95359   0.00000  Uiso   1.00
C731   C     0.18615   0.79378   0.71671   0.00000  Uiso   1.00
C732   C     0.10482   0.60482   0.55082   0.00000  Uiso   1.00
C733   C     0.11272   0.78313   0.50626   0.00000  Uiso   1.00
C734   C     0.11159   0.71753   0.98836   0.00000  Uiso   1.00
C735   C     0.14745   0.73589   0.99172   0.00000  Uiso   1.00
C736   C     0.12532   0.91219   0.13890   0.00000  Uiso   1.00
C737   C     0.09307   0.93440   0.13881   0.00000  Uiso   1.00
C738   C     0.18159   0.88378   0.09317   0.00000  Uiso   1.00
C739   C     0.14919   0.90985   0.09607   0.00000  Uiso   1.00
C740   C     0.04540   0.97123   0.08994   0.00000  Uiso   1.00
C741   C     0.08223   0.95138   0.09291   0.00000  Uiso   1.00
C742   C     0.14016   0.92845   0.05324   0.00000  Uiso   1.00
C743   C     0.10739   0.95079   0.05056   0.00000  Uiso   1.00
C744   C     0.14993   0.94094   0.30739   0.00000  Uiso   1.00
C745   C     0.11407   0.95898   0.30723   0.00000  Uiso   1.00
C746   C     0.19154   0.89228   0.34732   0.00000  Uiso   1.00
C747   C     0.15791   0.91697   0.34775   0.00000  Uiso   1.00
C748   C     0.04780   0.97211   0.34318   0.00000  Uiso   1.00
C749   C     0.08614   0.95269   0.34332   0.00000  Uiso   1.00
C750   C     0.12859   0.90817   0.38246   0.00000  Uiso   1.00
C751   C     0.09271   0.92639   0.38054   0.00000  Uiso   1.00
C752   C     0.17994   0.80076   0.47239   0.00000  Uiso   1.00
C753   C     0.12418   0.90830   0.63855   0.00000  Uiso   1.00
C754   C     0.08830   0.92565   0.63373   0.00000  Uiso   1.00
C755   C     0.19066   0.89181   0.59769   0.00000  Uiso   1.00
C756   C     0.15247   0.91267   0.60057   0.00000  Uiso   1.00
C757   C     0.04532   0.97340   0.59466   0.00000  Uiso   1.00
C758   C     0.08211   0.95146   0.59495   0.00000  Uiso   1.00
C759   C     0.14683   0.93668   0.56063   0.00000  Uiso   1.00
C760   C     0.11189   0.95763   0.55910   0.00000  Uiso   1.00
C761   C     0.14425   0.93646   0.80117   0.00000  Uiso   1.00
C762   C     0.10829   0.95401   0.79879   0.00000  Uiso   1.00
C763   C     0.18644   0.88684   0.84054   0.00000  Uiso   1.00
C764   C     0.15132   0.90967   0.83982   0.00000  Uiso   1.00
C765   C     0.04224   0.96762   0.83846   0.00000  Uiso   1.00
C766   C     0.07981   0.94450   0.83603   0.00000  Uiso   1.00
C767   C     0.12250   0.90312   0.87569   0.00000  Uiso   1.00
C768   C     0.08547   0.91745   0.87411   0.00000  Uiso   1.00
C769   C     0.36570   0.11824   0.17941   0.00000  Uiso   1.00
C770   C     0.39800   0.09572   0.18236   0.00000  Uiso   1.00
C771   C     0.29772   0.13619   0.21251   0.00000  Uiso   1.00
C772   C     0.33396   0.11316   0.21230   0.00000  Uiso   1.00
C773   C     0.43788   0.04698   0.22319   0.00000  Uiso   1.00
C774   C     0.40121   0.06870   0.22114   0.00000  Uiso   1.00
C775   C     0.35802   0.11609   0.42088   0.00000  Uiso   1.00
C776   C     0.39165   0.09492   0.42657   0.00000  Uiso   1.00
C777   C     0.29529   0.14214   0.46421   0.00000  Uiso   1.00
C778   C     0.33325   0.12134   0.46550   0.00000  Uiso   1.00
C779   C     0.43562   0.04918   0.46704   0.00000  Uiso   1.00
C780   C     0.40070   0.07592   0.47058   0.00000  Uiso   1.00
C781   C     0.33722   0.08919   0.25305   0.00000  Uiso   1.00
C782   C     0.36943   0.06463   0.25391   0.00000  Uiso   1.00
C783   C     0.38057   0.08021   0.00719   0.00000  Uiso   1.00
C784   C     0.34460   0.09574   0.00669   0.00000  Uiso   1.00
C785   C     0.36010   0.12690   0.92720   0.00000  Uiso   1.00
C786   C     0.39761   0.10919   0.92897   0.00000  Uiso   1.00
C787   C     0.36696   0.12296   0.67473   0.00000  Uiso   1.00
C788   C     0.39951   0.10029   0.67933   0.00000  Uiso   1.00
C789   C     0.29923   0.14343   0.70916   0.00000  Uiso   1.00
C790   C     0.33586   0.12037   0.70993   0.00000  Uiso   1.00
C791   C     0.43977   0.05115   0.71705   0.00000  Uiso   1.00
C792   C     0.40509   0.07608   0.72067   0.00000  Uiso   1.00
C793   C     0.29517   0.13882   0.96591   0.00000  Uiso   1.00
C794   C     0.33377   0.11954   0.96647   0.00000  Uiso   1.00
C795   C     0.44125   0.05759   0.96540   0.00000  Uiso   1.00
C796   C     0.40787   0.08324   0.96724   0.00000  Uiso   1.00
C797   C     0.34020   0.09669   0.75177   0.00000  Uiso   1.00
C798   C     0.37562   0.07633   0.75817   0.00000  Uiso   1.00
C799   C     0.37720   0.08065   0.51213   0.00000  Uiso   1.00
C800   C     0.34236   0.10120   0.50868   0.00000  Uiso   1.00
C801   C     0.29205   0.21555   0.08577   0.00000  Uiso   1.00
C802   C     0.37470   0.27553   0.12712   0.00000  Uiso   1.00
C803   C     0.33692   0.26010   0.12577   0.00000  Uiso   1.00
C804   C     0.39571   0.24157   0.05558   0.00000  Uiso   1.00
C805   C     0.35744   0.22703   0.04968   0.00000  Uiso   1.00
C806   C     0.43911   0.28942   0.09455   0.00000  Uiso   1.00
C807   C     0.40314   0.26889   0.09125   0.00000  Uiso   1.00
C808   C     0.37233   0.39254   0.42921   0.00000  Uiso   1.00
C809   C     0.32894   0.23442   0.08636   0.00000  Uiso   1.00
C810   C     0.43850   0.38347   0.22387   0.00000  Uiso   1.00
C811   C     0.37500   0.27537   0.37600   0.00000  Uiso   1.00
C812   C     0.33946   0.25717   0.37754   0.00000  Uiso   1.00
C813   C     0.39445   0.24192   0.30073   0.00000  Uiso   1.00
C814   C     0.35880   0.22473   0.29979   0.00000  Uiso   1.00
C815   C     0.44098   0.28642   0.34227   0.00000  Uiso   1.00
C816   C     0.40383   0.26734   0.33850   0.00000  Uiso   1.00
C817   C     0.33091   0.23191   0.33832   0.00000  Uiso   1.00
C818   C     0.43541   0.37572   0.46814   0.00000  Uiso   1.00
C819   C     0.29445   0.21116   0.33834   0.00000  Uiso   1.00
C820   C     0.40177   0.39848   0.46613   0.00000  Uiso   1.00
C821   C     0.37803   0.39966   0.17923   0.00000  Uiso   1.00
C822   C     0.37526   0.27085   0.63607   0.00000  Uiso   1.00
C823   C     0.33589   0.25897   0.63122   0.00000  Uiso   1.00
C824   C     0.39205   0.24396   0.55249   0.00000  Uiso   1.00
C825   C     0.35407   0.23078   0.55134   0.00000  Uiso   1.00
C826   C     0.43974   0.28513   0.59505   0.00000  Uiso   1.00
C827   C     0.40312   0.26549   0.59467   0.00000  Uiso   1.00
C828   C     0.32492   0.23932   0.58862   0.00000  Uiso   1.00
C829   C     0.44065   0.38187   0.71628   0.00000  Uiso   1.00
C830   C     0.38302   0.26886   0.88108   0.00000  Uiso   1.00
C831   C     0.34613   0.25232   0.88039   0.00000  Uiso   1.00
C832   C     0.40123   0.23999   0.80065   0.00000  Uiso   1.00
C833   C     0.36275   0.22359   0.80032   0.00000  Uiso   1.00
C834   C     0.44610   0.28644   0.84157   0.00000  Uiso   1.00
C835   C     0.41108   0.26293   0.84204   0.00000  Uiso   1.00
C836   C     0.28814   0.21952   0.58649   0.00000  Uiso   1.00
C837   C     0.33459   0.23053   0.83959   0.00000  Uiso   1.00
C838   C     0.43400   0.38035   0.96699   0.00000  Uiso   1.00
C839   C     0.29651   0.21095   0.83802   0.00000  Uiso   1.00
C840   C     0.37295   0.39168   0.68400   0.00000  Uiso   1.00
C841   C     0.36819   0.39511   0.92850   0.00000  Uiso   1.00
C842   C     0.34897   0.57628   0.05110   0.00000  Uiso   1.00
C843   C     0.38979   0.42652   0.00725   0.00000  Uiso   1.00
C844   C     0.29095   0.55470   0.34453   0.00000  Uiso   1.00
C845   C     0.32807   0.57694   0.34558   0.00000  Uiso   1.00
C846   C     0.34040   0.41418   0.17852   0.00000  Uiso   1.00
C847   C     0.38627   0.59208   0.05002   0.00000  Uiso   1.00
C848   C     0.29146   0.45808   0.21667   0.00000  Uiso   1.00
C849   C     0.32812   0.43548   0.21891   0.00000  Uiso   1.00
C850   C     0.38843   0.42551   0.26300   0.00000  Uiso   1.00
C851   C     0.29062   0.55471   0.09395   0.00000  Uiso   1.00
C852   C     0.32452   0.57883   0.09591   0.00000  Uiso   1.00
C853   C     0.29145   0.45758   0.46787   0.00000  Uiso   1.00
C854   C     0.32732   0.43485   0.46731   0.00000  Uiso   1.00
C855   C     0.35231   0.44061   0.26127   0.00000  Uiso   1.00
C856   C     0.35564   0.57124   0.30442   0.00000  Uiso   1.00
C857   C     0.39065   0.58890   0.30215   0.00000  Uiso   1.00
C858   C     0.33589   0.41032   0.43006   0.00000  Uiso   1.00
C859   C     0.35393   0.44394   0.00855   0.00000  Uiso   1.00
C860   C     0.33944   0.59596   0.13822   0.00000  Uiso   1.00
C861   C     0.40234   0.40385   0.22141   0.00000  Uiso   1.00
C862   C     0.39720   0.42922   0.75237   0.00000  Uiso   1.00
C863   C     0.28819   0.55691   0.83936   0.00000  Uiso   1.00
C864   C     0.33765   0.40994   0.68497   0.00000  Uiso   1.00
C865   C     0.32163   0.58139   0.83772   0.00000  Uiso   1.00
C866   C     0.33215   0.41394   0.92986   0.00000  Uiso   1.00
C867   C     0.35408   0.57231   0.55258   0.00000  Uiso   1.00
C868   C     0.38513   0.59308   0.79478   0.00000  Uiso   1.00
C869   C     0.29261   0.45861   0.71726   0.00000  Uiso   1.00
C870   C     0.33049   0.43920   0.71838   0.00000  Uiso   1.00
C871   C     0.40327   0.40201   0.71819   0.00000  Uiso   1.00
C872   C     0.28948   0.55644   0.59096   0.00000  Uiso   1.00
C873   C     0.32551   0.57959   0.58929   0.00000  Uiso   1.00
C874   C     0.29030   0.46129   0.96856   0.00000  Uiso   1.00
C875   C     0.32450   0.43717   0.97024   0.00000  Uiso   1.00
C876   C     0.36174   0.44854   0.75154   0.00000  Uiso   1.00
C877   C     0.34864   0.57589   0.79544   0.00000  Uiso   1.00
C878   C     0.39070   0.59096   0.55298   0.00000  Uiso   1.00
C879   C     0.39177   0.42332   0.50362   0.00000  Uiso   1.00
C880   C     0.39753   0.40182   0.96608   0.00000  Uiso   1.00
C881   C     0.35595   0.44255   0.50261   0.00000  Uiso   1.00
C882   C     0.39855   0.61298   0.09088   0.00000  Uiso   1.00
C883   C     0.43428   0.63700   0.08994   0.00000  Uiso   1.00
C884   C     0.37505   0.61808   0.38265   0.00000  Uiso   1.00
C885   C     0.35323   0.77979   0.26267   0.00000  Uiso   1.00
C886   C     0.38939   0.76199   0.25846   0.00000  Uiso   1.00
C887   C     0.32502   0.77732   0.22381   0.00000  Uiso   1.00
C888   C     0.43199   0.71842   0.21414   0.00000  Uiso   1.00
C889   C     0.39712   0.73996   0.21625   0.00000  Uiso   1.00
C890   C     0.37786   0.61091   0.13660   0.00000  Uiso   1.00
C891   C     0.43676   0.63588   0.33802   0.00000  Uiso   1.00
C892   C     0.33266   0.74894   0.42866   0.00000  Uiso   1.00
C893   C     0.36777   0.72979   0.42624   0.00000  Uiso   1.00
C894   C     0.32492   0.77696   0.46579   0.00000  Uiso   1.00
C895   C     0.43255   0.71868   0.46109   0.00000  Uiso   1.00
C896   C     0.39748   0.74115   0.45847   0.00000  Uiso   1.00
C897   C     0.33359   0.75593   0.18138   0.00000  Uiso   1.00
C898   C     0.36953   0.73935   0.17610   0.00000  Uiso   1.00
C899   C     0.40057   0.61352   0.34048   0.00000  Uiso   1.00
C900   C     0.28930   0.79892   0.46694   0.00000  Uiso   1.00
C901   C     0.33995   0.60005   0.38557   0.00000  Uiso   1.00
C902   C     0.35606   0.78447   0.49952   0.00000  Uiso   1.00
C903   C     0.39321   0.76934   0.49460   0.00000  Uiso   1.00
C904   C     0.39696   0.62002   0.58639   0.00000  Uiso   1.00
C905   C     0.35453   0.78417   0.99756   0.00000  Uiso   1.00
C906   C     0.36839   0.62454   0.87388   0.00000  Uiso   1.00
C907   C     0.43148   0.64371   0.58701   0.00000  Uiso   1.00
C908   C     0.33423   0.75286   0.67718   0.00000  Uiso   1.00
C909   C     0.36888   0.73397   0.67845   0.00000  Uiso   1.00
C910   C     0.32580   0.77728   0.71865   0.00000  Uiso   1.00
C911   C     0.43033   0.71482   0.71630   0.00000  Uiso   1.00
C912   C     0.39566   0.73741   0.71694   0.00000  Uiso   1.00
C913   C     0.35132   0.78014   0.75839   0.00000  Uiso   1.00
C914   C     0.33106   0.60658   0.87627   0.00000  Uiso   1.00
C915   C     0.43310   0.63571   0.83208   0.00000  Uiso   1.00
C916   C     0.32771   0.74863   0.92683   0.00000  Uiso   1.00
C917   C     0.36450   0.73264   0.92205   0.00000  Uiso   1.00
C918   C     0.32168   0.77526   0.96421   0.00000  Uiso   1.00
C919   C     0.43163   0.71817   0.95403   0.00000  Uiso   1.00
C920   C     0.39637   0.73976   0.95594   0.00000  Uiso   1.00
C921   C     0.38591   0.76075   0.75838   0.00000  Uiso   1.00
C922   C     0.36892   0.62704   0.62466   0.00000  Uiso   1.00
C923   C     0.39635   0.61603   0.83491   0.00000  Uiso   1.00
C924   C     0.33274   0.60892   0.62444   0.00000  Uiso   1.00
C925   C     0.28721   0.79842   0.96637   0.00000  Uiso   1.00
C926   C     0.39027   0.76551   0.99412   0.00000  Uiso   1.00
C927   C     0.39686   0.90557   0.11595   0.00000  Uiso   1.00
C928   C     0.36345   0.88308   0.11820   0.00000  Uiso   1.00
C929   C     0.36559   0.94483   0.05633   0.00000  Uiso   1.00
C930   C     0.33285   0.92129   0.05491   0.00000  Uiso   1.00
C931   C     0.43349   0.95943   0.08734   0.00000  Uiso   1.00
C932   C     0.39746   0.93639   0.08622   0.00000  Uiso   1.00
C933   C     0.29414   0.87085   0.08859   0.00000  Uiso   1.00
C934   C     0.33012   0.89288   0.08901   0.00000  Uiso   1.00
C935   C     0.38463   0.92691   0.38982   0.00000  Uiso   1.00
C936   C     0.34921   0.90851   0.39192   0.00000  Uiso   1.00
C937   C     0.39255   0.90955   0.30274   0.00000  Uiso   1.00
C938   C     0.35605   0.89399   0.30285   0.00000  Uiso   1.00
C939   C     0.44225   0.95215   0.34418   0.00000  Uiso   1.00
C940   C     0.40623   0.92884   0.34669   0.00000  Uiso   1.00
C941   C     0.29486   0.87701   0.34637   0.00000  Uiso   1.00
C942   C     0.33458   0.89277   0.34796   0.00000  Uiso   1.00
C943   C     0.28797   0.80050   0.22250   0.00000  Uiso   1.00
C944   C     0.38143   0.93841   0.63017   0.00000  Uiso   1.00
C945   C     0.34375   0.92256   0.62923   0.00000  Uiso   1.00
C946   C     0.40042   0.90382   0.55618   0.00000  Uiso   1.00
C947   C     0.36478   0.88495   0.55865   0.00000  Uiso   1.00
C948   C     0.44561   0.95559   0.59013   0.00000  Uiso   1.00
C949   C     0.40915   0.93086   0.59281   0.00000  Uiso   1.00
C950   C     0.29716   0.87926   0.59393   0.00000  Uiso   1.00
C951   C     0.33495   0.89637   0.59276   0.00000  Uiso   1.00
C952   C     0.37550   0.93951   0.88282   0.00000  Uiso   1.00
C953   C     0.33792   0.92367   0.88209   0.00000  Uiso   1.00
C954   C     0.39273   0.90739   0.80840   0.00000  Uiso   1.00
C955   C     0.35544   0.89086   0.80463   0.00000  Uiso   1.00
C956   C     0.43736   0.95706   0.84076   0.00000  Uiso   1.00
C957   C     0.40274   0.93337   0.84472   0.00000  Uiso   1.00
C958   C     0.28996   0.88035   0.84368   0.00000  Uiso   1.00
C959   C     0.32703   0.89916   0.84340   0.00000  Uiso   1.00
C960   C     0.29153   0.80029   0.71848   0.00000  Uiso   1.00
C961   C     0.64650   0.07639   0.42962   0.00000  Uiso   1.00
C962   C     0.60979   0.06078   0.42937   0.00000  Uiso   1.00
C963   C     0.60982   0.05761   0.17854   0.00000  Uiso   1.00
C964   C     0.64502   0.07655   0.17999   0.00000  Uiso   1.00
C965   C     0.54381   0.04020   0.21439   0.00000  Uiso   1.00
C966   C     0.58019   0.06204   0.21635   0.00000  Uiso   1.00
C967   C     0.68886   0.12301   0.21713   0.00000  Uiso   1.00
C968   C     0.65279   0.10025   0.22001   0.00000  Uiso   1.00
C969   C     0.59122   0.08310   0.25995   0.00000  Uiso   1.00
C970   C     0.62562   0.10413   0.26006   0.00000  Uiso   1.00
C971   C     0.54530   0.04479   0.46558   0.00000  Uiso   1.00
C972   C     0.58358   0.06601   0.46840   0.00000  Uiso   1.00
C973   C     0.69268   0.12298   0.46626   0.00000  Uiso   1.00
C974   C     0.65783   0.09761   0.47041   0.00000  Uiso   1.00
C975   C     0.59088   0.08219   0.00442   0.00000  Uiso   1.00
C976   C     0.62443   0.10548   0.00392   0.00000  Uiso   1.00
C977   C     0.59327   0.08956   0.75561   0.00000  Uiso   1.00
C978   C     0.63041   0.10811   0.75388   0.00000  Uiso   1.00
C979   C     0.54992   0.03947   0.71984   0.00000  Uiso   1.00
C980   C     0.58761   0.05993   0.72198   0.00000  Uiso   1.00
C981   C     0.69293   0.12292   0.71328   0.00000  Uiso   1.00
C982   C     0.65753   0.10042   0.71639   0.00000  Uiso   1.00
C983   C     0.61411   0.05398   0.68130   0.00000  Uiso   1.00
C984   C     0.64947   0.07263   0.68001   0.00000  Uiso   1.00
C985   C     0.61313   0.05652   0.92395   0.00000  Uiso   1.00
C986   C     0.64725   0.07771   0.92385   0.00000  Uiso   1.00
C987   C     0.54656   0.04033   0.96233   0.00000  Uiso   1.00
C988   C     0.58390   0.05992   0.96236   0.00000  Uiso   1.00
C989   C     0.68820   0.12656   0.96258   0.00000  Uiso   1.00
C990   C     0.65221   0.10362   0.96423   0.00000  Uiso   1.00
C991   C     0.63537   0.09768   0.51530   0.00000  Uiso   1.00
C992   C     0.59768   0.08348   0.51474   0.00000  Uiso   1.00
C993   C     0.69062   0.21478   0.33599   0.00000  Uiso   1.00
C994   C     0.60641   0.38958   0.00121   0.00000  Uiso   1.00
C995   C     0.54329   0.37263   0.47000   0.00000  Uiso   1.00
C996   C     0.62604   0.23983   0.04338   0.00000  Uiso   1.00
C997   C     0.59270   0.26223   0.04543   0.00000  Uiso   1.00
C998   C     0.68736   0.21406   0.08271   0.00000  Uiso   1.00
C999   C     0.65492   0.23960   0.08077   0.00000  Uiso   1.00
C1000  C     0.54566   0.30460   0.09360   0.00000  Uiso   1.00
C1001  C     0.58486   0.28319   0.08887   0.00000  Uiso   1.00
C1002  C     0.64584   0.26086   0.12438   0.00000  Uiso   1.00
C1003  C     0.61346   0.28326   0.12721   0.00000  Uiso   1.00
C1004  C     0.54037   0.38133   0.21625   0.00000  Uiso   1.00
C1005  C     0.62835   0.23820   0.29540   0.00000  Uiso   1.00
C1006  C     0.59429   0.25859   0.29633   0.00000  Uiso   1.00
C1007  C     0.65594   0.23780   0.33559   0.00000  Uiso   1.00
C1008  C     0.54787   0.29871   0.34349   0.00000  Uiso   1.00
C1009  C     0.58480   0.27665   0.34199   0.00000  Uiso   1.00
C1010  C     0.64598   0.25672   0.37970   0.00000  Uiso   1.00
C1011  C     0.61286   0.27633   0.38271   0.00000  Uiso   1.00
C1012  C     0.57994   0.39395   0.46903   0.00000  Uiso   1.00
C1013  C     0.65014   0.26869   0.62337   0.00000  Uiso   1.00
C1014  C     0.61326   0.28487   0.62221   0.00000  Uiso   1.00
C1015  C     0.69371   0.21939   0.59100   0.00000  Uiso   1.00
C1016  C     0.65724   0.23867   0.59000   0.00000  Uiso   1.00
C1017  C     0.54668   0.29326   0.59140   0.00000  Uiso   1.00
C1018  C     0.58413   0.27313   0.59125   0.00000  Uiso   1.00
C1019  C     0.62658   0.22494   0.56042   0.00000  Uiso   1.00
C1020  C     0.58994   0.24092   0.56081   0.00000  Uiso   1.00
C1021  C     0.54807   0.37167   0.70917   0.00000  Uiso   1.00
C1022  C     0.62507   0.23755   0.79631   0.00000  Uiso   1.00
C1023  C     0.59101   0.25833   0.79931   0.00000  Uiso   1.00
C1024  C     0.65359   0.24051   0.83456   0.00000  Uiso   1.00
C1025  C     0.54733   0.30015   0.84532   0.00000  Uiso   1.00
C1026  C     0.58309   0.27905   0.84311   0.00000  Uiso   1.00
C1027  C     0.64633   0.26284   0.87742   0.00000  Uiso   1.00
C1028  C     0.61016   0.27963   0.88168   0.00000  Uiso   1.00
C1029  C     0.54302   0.37759   0.96661   0.00000  Uiso   1.00
C1030  C     0.68953   0.21994   0.83331   0.00000  Uiso   1.00
C1031  C     0.58540   0.38906   0.70383   0.00000  Uiso   1.00
C1032  C     0.61281   0.38381   0.74410   0.00000  Uiso   1.00
C1033  C     0.61046   0.38416   0.50249   0.00000  Uiso   1.00
C1034  C     0.57909   0.39815   0.96390   0.00000  Uiso   1.00
C1035  C     0.64065   0.41524   0.25612   0.00000  Uiso   1.00
C1036  C     0.62325   0.43600   0.42429   0.00000  Uiso   1.00
C1037  C     0.62062   0.57341   0.12567   0.00000  Uiso   1.00
C1038  C     0.61673   0.56352   0.37075   0.00000  Uiso   1.00
C1039  C     0.68228   0.55233   0.08500   0.00000  Uiso   1.00
C1040  C     0.64809   0.57677   0.08540   0.00000  Uiso   1.00
C1041  C     0.63115   0.42984   0.16918   0.00000  Uiso   1.00
C1042  C     0.68844   0.45488   0.21143   0.00000  Uiso   1.00
C1043  C     0.65433   0.43107   0.21183   0.00000  Uiso   1.00
C1044  C     0.58577   0.59127   0.12683   0.00000  Uiso   1.00
C1045  C     0.63999   0.59936   0.30202   0.00000  Uiso   1.00
C1046  C     0.58812   0.41780   0.42788   0.00000  Uiso   1.00
C1047  C     0.68041   0.54735   0.33361   0.00000  Uiso   1.00
C1048  C     0.64520   0.57077   0.33344   0.00000  Uiso   1.00
C1049  C     0.59398   0.41621   0.16751   0.00000  Uiso   1.00
C1050  C     0.68224   0.45754   0.46396   0.00000  Uiso   1.00
C1051  C     0.64985   0.43224   0.46305   0.00000  Uiso   1.00
C1052  C     0.58245   0.58331   0.37342   0.00000  Uiso   1.00
C1053  C     0.63667   0.59848   0.04370   0.00000  Uiso   1.00
C1054  C     0.64198   0.40578   0.00232   0.00000  Uiso   1.00
C1055  C     0.60171   0.40473   0.25689   0.00000  Uiso   1.00
C1056  C     0.57890   0.40135   0.21290   0.00000  Uiso   1.00
C1057  C     0.64917   0.40190   0.74296   0.00000  Uiso   1.00
C1058  C     0.63088   0.43071   0.66557   0.00000  Uiso   1.00
C1059  C     0.58575   0.42375   0.92711   0.00000  Uiso   1.00
C1060  C     0.61169   0.56219   0.61887   0.00000  Uiso   1.00
C1061  C     0.57797   0.58357   0.61808   0.00000  Uiso   1.00
C1062  C     0.68027   0.54977   0.58683   0.00000  Uiso   1.00
C1063  C     0.64351   0.57022   0.58452   0.00000  Uiso   1.00
C1064  C     0.59597   0.41214   0.66399   0.00000  Uiso   1.00
C1065  C     0.69033   0.45364   0.70704   0.00000  Uiso   1.00
C1066  C     0.65795   0.42571   0.70357   0.00000  Uiso   1.00
C1067  C     0.68149   0.54695   0.83776   0.00000  Uiso   1.00
C1068  C     0.64521   0.57152   0.83928   0.00000  Uiso   1.00
C1069  C     0.62298   0.43973   0.92555   0.00000  Uiso   1.00
C1070  C     0.64413   0.40659   0.50117   0.00000  Uiso   1.00
C1071  C     0.68680   0.45771   0.96658   0.00000  Uiso   1.00
C1072  C     0.65119   0.43331   0.96479   0.00000  Uiso   1.00
C1073  C     0.62054   0.56947   0.88103   0.00000  Uiso   1.00
C1074  C     0.58220   0.58556   0.88053   0.00000  Uiso   1.00
C1075  C     0.63240   0.59069   0.79756   0.00000  Uiso   1.00
C1076  C     0.63421   0.59372   0.54357   0.00000  Uiso   1.00
C1077  C     0.60558   0.61897   0.30428   0.00000  Uiso   1.00
C1078  C     0.61916   0.78879   0.17367   0.00000  Uiso   1.00
C1079  C     0.54219   0.63980   0.08784   0.00000  Uiso   1.00
C1080  C     0.61921   0.79033   0.42686   0.00000  Uiso   1.00
C1081  C     0.58169   0.77234   0.17234   0.00000  Uiso   1.00
C1082  C     0.53419   0.72885   0.21137   0.00000  Uiso   1.00
C1083  C     0.57180   0.75007   0.21241   0.00000  Uiso   1.00
C1084  C     0.57719   0.61226   0.34082   0.00000  Uiso   1.00
C1085  C     0.64526   0.78205   0.21492   0.00000  Uiso   1.00
C1086  C     0.54499   0.63743   0.34165   0.00000  Uiso   1.00
C1087  C     0.64281   0.78869   0.46963   0.00000  Uiso   1.00
C1088  C     0.59852   0.74208   0.25241   0.00000  Uiso   1.00
C1089  C     0.63581   0.75720   0.25343   0.00000  Uiso   1.00
C1090  C     0.58330   0.77211   0.42500   0.00000  Uiso   1.00
C1091  C     0.60142   0.62039   0.04623   0.00000  Uiso   1.00
C1092  C     0.53446   0.73145   0.46394   0.00000  Uiso   1.00
C1093  C     0.56812   0.75630   0.46777   0.00000  Uiso   1.00
C1094  C     0.57710   0.61639   0.08793   0.00000  Uiso   1.00
C1095  C     0.57044   0.60468   0.83727   0.00000  Uiso   1.00
C1096  C     0.57328   0.61254   0.58263   0.00000  Uiso   1.00
C1097  C     0.59734   0.60729   0.79589   0.00000  Uiso   1.00
C1098  C     0.53988   0.63768   0.58766   0.00000  Uiso   1.00
C1099  C     0.60228   0.61704   0.54420   0.00000  Uiso   1.00
C1100  C     0.64293   0.78495   0.96353   0.00000  Uiso   1.00
C1101  C     0.57701   0.77893   0.69090   0.00000  Uiso   1.00
C1102  C     0.64550   0.78155   0.71320   0.00000  Uiso   1.00
C1103  C     0.53777   0.72418   0.71476   0.00000  Uiso   1.00
C1104  C     0.57449   0.74531   0.71610   0.00000  Uiso   1.00
C1105  C     0.59085   0.75689   0.51221   0.00000  Uiso   1.00
C1106  C     0.53536   0.62795   0.83760   0.00000  Uiso   1.00
C1107  C     0.60770   0.73046   0.74057   0.00000  Uiso   1.00
C1108  C     0.64205   0.75155   0.74450   0.00000  Uiso   1.00
C1109  C     0.60469   0.73741   0.92315   0.00000  Uiso   1.00
C1110  C     0.63963   0.75774   0.92749   0.00000  Uiso   1.00
C1111  C     0.53820   0.72232   0.95626   0.00000  Uiso   1.00
C1112  C     0.57243   0.74632   0.95297   0.00000  Uiso   1.00
C1113  C     0.61419   0.79558   0.68683   0.00000  Uiso   1.00
C1114  C     0.62786   0.77350   0.51345   0.00000  Uiso   1.00
C1115  C     0.57679   0.77300   0.99143   0.00000  Uiso   1.00
C1116  C     0.61078   0.79269   0.99544   0.00000  Uiso   1.00
C1117  C     0.68446   0.80304   0.47091   0.00000  Uiso   1.00
C1118  C     0.68189   0.80306   0.21661   0.00000  Uiso   1.00
C1119  C     0.64270   0.93066   0.05783   0.00000  Uiso   1.00
C1120  C     0.60834   0.95087   0.06162   0.00000  Uiso   1.00
C1121  C     0.68885   0.88235   0.09583   0.00000  Uiso   1.00
C1122  C     0.65237   0.90545   0.09498   0.00000  Uiso   1.00
C1123  C     0.54237   0.96410   0.09384   0.00000  Uiso   1.00
C1124  C     0.57937   0.94383   0.09531   0.00000  Uiso   1.00
C1125  C     0.62313   0.89788   0.13238   0.00000  Uiso   1.00
C1126  C     0.58630   0.91617   0.13169   0.00000  Uiso   1.00
C1127  C     0.63072   0.90363   0.39420   0.00000  Uiso   1.00
C1128  C     0.59695   0.92736   0.39198   0.00000  Uiso   1.00
C1129  C     0.68991   0.87678   0.34979   0.00000  Uiso   1.00
C1130  C     0.65588   0.90047   0.35246   0.00000  Uiso   1.00
C1131  C     0.55008   0.96716   0.34389   0.00000  Uiso   1.00
C1132  C     0.58822   0.94657   0.34706   0.00000  Uiso   1.00
C1133  C     0.64638   0.91938   0.30943   0.00000  Uiso   1.00
C1134  C     0.61160   0.94051   0.30435   0.00000  Uiso   1.00
C1135  C     0.65100   0.93573   0.55491   0.00000  Uiso   1.00
C1136  C     0.61431   0.95263   0.55341   0.00000  Uiso   1.00
C1137  C     0.69346   0.88651   0.59289   0.00000  Uiso   1.00
C1138  C     0.65968   0.91086   0.59341   0.00000  Uiso   1.00
C1139  C     0.54904   0.97101   0.59164   0.00000  Uiso   1.00
C1140  C     0.58709   0.94960   0.59472   0.00000  Uiso   1.00
C1141  C     0.63195   0.90533   0.63241   0.00000  Uiso   1.00
C1142  C     0.59551   0.92233   0.63058   0.00000  Uiso   1.00
C1143  C     0.64170   0.92554   0.80366   0.00000  Uiso   1.00
C1144  C     0.60805   0.94554   0.80478   0.00000  Uiso   1.00
C1145  C     0.68614   0.87855   0.84055   0.00000  Uiso   1.00
C1146  C     0.65041   0.90153   0.84292   0.00000  Uiso   1.00
C1147  C     0.54247   0.96011   0.84203   0.00000  Uiso   1.00
C1148  C     0.57977   0.94062   0.84222   0.00000  Uiso   1.00
C1149  C     0.62366   0.89616   0.88055   0.00000  Uiso   1.00
C1150  C     0.58708   0.91546   0.87927   0.00000  Uiso   1.00
C1151  C     0.68105   0.80335   0.96911   0.00000  Uiso   1.00
C1152  C     0.68261   0.80216   0.71404   0.00000  Uiso   1.00
C1153  C     0.86281   0.11873   0.17228   0.00000  Uiso   1.00
C1154  C     0.89849   0.10092   0.17751   0.00000  Uiso   1.00
C1155  C     0.79761   0.13482   0.20895   0.00000  Uiso   1.00
C1156  C     0.83326   0.11204   0.20802   0.00000  Uiso   1.00
C1157  C     0.93956   0.05451   0.22052   0.00000  Uiso   1.00
C1158  C     0.90342   0.07443   0.21660   0.00000  Uiso   1.00
C1159  C     0.89634   0.10597   0.43158   0.00000  Uiso   1.00
C1160  C     0.79466   0.13149   0.46255   0.00000  Uiso   1.00
C1161  C     0.83045   0.11292   0.46457   0.00000  Uiso   1.00
C1162  C     0.93656   0.05438   0.46401   0.00000  Uiso   1.00
C1163  C     0.90248   0.07751   0.46685   0.00000  Uiso   1.00
C1164  C     0.83832   0.08808   0.24956   0.00000  Uiso   1.00
C1165  C     0.87282   0.06711   0.25193   0.00000  Uiso   1.00
C1166  C     0.85907   0.12319   0.43005   0.00000  Uiso   1.00
C1167  C     0.87101   0.06611   0.00137   0.00000  Uiso   1.00
C1168  C     0.84395   0.09197   0.75379   0.00000  Uiso   1.00
C1169  C     0.87995   0.07695   0.75600   0.00000  Uiso   1.00
C1170  C     0.79678   0.13634   0.71561   0.00000  Uiso   1.00
C1171  C     0.83490   0.11874   0.71746   0.00000  Uiso   1.00
C1172  C     0.94649   0.06542   0.72102   0.00000  Uiso   1.00
C1173  C     0.91089   0.08872   0.72188   0.00000  Uiso   1.00
C1174  C     0.87488   0.06904   0.50400   0.00000  Uiso   1.00
C1175  C     0.86480   0.11906   0.92568   0.00000  Uiso   1.00
C1176  C     0.90014   0.10054   0.93024   0.00000  Uiso   1.00
C1177  C     0.79606   0.13261   0.95954   0.00000  Uiso   1.00
C1178  C     0.83152   0.11098   0.95881   0.00000  Uiso   1.00
C1179  C     0.93847   0.05325   0.96771   0.00000  Uiso   1.00
C1180  C     0.90319   0.07432   0.96772   0.00000  Uiso   1.00
C1181  C     0.86524   0.13094   0.68228   0.00000  Uiso   1.00
C1182  C     0.90312   0.11570   0.68674   0.00000  Uiso   1.00
C1183  C     0.83624   0.08443   0.99659   0.00000  Uiso   1.00
C1184  C     0.83887   0.08618   0.50157   0.00000  Uiso   1.00
C1185  C     0.87092   0.28357   0.13237   0.00000  Uiso   1.00
C1186  C     0.83772   0.26140   0.13139   0.00000  Uiso   1.00
C1187  C     0.89147   0.25611   0.05074   0.00000  Uiso   1.00
C1188  C     0.85601   0.23568   0.05079   0.00000  Uiso   1.00
C1189  C     0.93286   0.30601   0.09260   0.00000  Uiso   1.00
C1190  C     0.89835   0.28156   0.09158   0.00000  Uiso   1.00
C1191  C     0.79397   0.21354   0.08953   0.00000  Uiso   1.00
C1192  C     0.82945   0.23832   0.09007   0.00000  Uiso   1.00
C1193  C     0.93630   0.39079   0.21443   0.00000  Uiso   1.00
C1194  C     0.88118   0.27291   0.37760   0.00000  Uiso   1.00
C1195  C     0.84663   0.25134   0.38056   0.00000  Uiso   1.00
C1196  C     0.89937   0.24260   0.29965   0.00000  Uiso   1.00
C1197  C     0.86299   0.22574   0.29894   0.00000  Uiso   1.00
C1198  C     0.94023   0.29592   0.33344   0.00000  Uiso   1.00
C1199  C     0.90575   0.27084   0.33582   0.00000  Uiso   1.00
C1200  C     0.83545   0.22953   0.33843   0.00000  Uiso   1.00
C1201  C     0.93419   0.38887   0.46083   0.00000  Uiso   1.00
C1202  C     0.79740   0.20986   0.33466   0.00000  Uiso   1.00
C1203  C     0.87828   0.27545   0.62550   0.00000  Uiso   1.00
C1204  C     0.84150   0.25655   0.62283   0.00000  Uiso   1.00
C1205  C     0.89859   0.24845   0.54774   0.00000  Uiso   1.00
C1206  C     0.86401   0.22736   0.54618   0.00000  Uiso   1.00
C1207  C     0.93892   0.29558   0.58832   0.00000  Uiso   1.00
C1208  C     0.90730   0.27032   0.58808   0.00000  Uiso   1.00
C1209  C     0.93755   0.38879   0.71240   0.00000  Uiso   1.00
C1210  C     0.83537   0.22973   0.58601   0.00000  Uiso   1.00
C1211  C     0.87721   0.27751   0.87519   0.00000  Uiso   1.00
C1212  C     0.83960   0.26150   0.87522   0.00000  Uiso   1.00
C1213  C     0.89516   0.24614   0.79841   0.00000  Uiso   1.00
C1214  C     0.85934   0.22931   0.79785   0.00000  Uiso   1.00
C1215  C     0.94052   0.29041   0.83763   0.00000  Uiso   1.00
C1216  C     0.90573   0.26886   0.83725   0.00000  Uiso   1.00
C1217  C     0.79492   0.21368   0.83797   0.00000  Uiso   1.00
C1218  C     0.83081   0.23572   0.83665   0.00000  Uiso   1.00
C1219  C     0.79919   0.20813   0.58437   0.00000  Uiso   1.00
C1220  C     0.93670   0.38792   0.95973   0.00000  Uiso   1.00
C1221  C     0.89014   0.58117   0.37447   0.00000  Uiso   1.00
C1222  C     0.83444   0.58991   0.05060   0.00000  Uiso   1.00
C1223  C     0.84205   0.42656   0.16712   0.00000  Uiso   1.00
C1224  C     0.85736   0.56086   0.12691   0.00000  Uiso   1.00
C1225  C     0.79297   0.46964   0.20814   0.00000  Uiso   1.00
C1226  C     0.82920   0.44913   0.20731   0.00000  Uiso   1.00
C1227  C     0.82513   0.56936   0.33849   0.00000  Uiso   1.00
C1228  C     0.89355   0.57838   0.12181   0.00000  Uiso   1.00
C1229  C     0.78926   0.54574   0.08882   0.00000  Uiso   1.00
C1230  C     0.82731   0.56605   0.08991   0.00000  Uiso   1.00
C1231  C     0.79338   0.47243   0.46273   0.00000  Uiso   1.00
C1232  C     0.82960   0.45189   0.46385   0.00000  Uiso   1.00
C1233  C     0.85547   0.45393   0.24841   0.00000  Uiso   1.00
C1234  C     0.85487   0.56082   0.37331   0.00000  Uiso   1.00
C1235  C     0.89326   0.43775   0.24952   0.00000  Uiso   1.00
C1236  C     0.78916   0.54489   0.33730   0.00000  Uiso   1.00
C1237  C     0.83494   0.42341   0.42758   0.00000  Uiso   1.00
C1238  C     0.89424   0.44212   0.49527   0.00000  Uiso   1.00
C1239  C     0.85838   0.46094   0.49814   0.00000  Uiso   1.00
C1240  C     0.89984   0.41351   0.45959   0.00000  Uiso   1.00
C1241  C     0.86971   0.40549   0.42780   0.00000  Uiso   1.00
C1242  C     0.83262   0.59460   0.29956   0.00000  Uiso   1.00
C1243  C     0.90285   0.41606   0.20785   0.00000  Uiso   1.00
C1244  C     0.87820   0.40926   0.16735   0.00000  Uiso   1.00
C1245  C     0.83742   0.42180   0.92428   0.00000  Uiso   1.00
C1246  C     0.89035   0.57615   0.86637   0.00000  Uiso   1.00
C1247  C     0.82747   0.59936   0.80606   0.00000  Uiso   1.00
C1248  C     0.90176   0.41086   0.95985   0.00000  Uiso   1.00
C1249  C     0.83806   0.42334   0.67310   0.00000  Uiso   1.00
C1250  C     0.79364   0.47026   0.71693   0.00000  Uiso   1.00
C1251  C     0.82867   0.44747   0.71451   0.00000  Uiso   1.00
C1252  C     0.84985   0.56205   0.62113   0.00000  Uiso   1.00
C1253  C     0.78626   0.54818   0.58357   0.00000  Uiso   1.00
C1254  C     0.82248   0.56913   0.58238   0.00000  Uiso   1.00
C1255  C     0.90252   0.41173   0.71199   0.00000  Uiso   1.00
C1256  C     0.79290   0.46957   0.96182   0.00000  Uiso   1.00
C1257  C     0.83150   0.45046   0.95982   0.00000  Uiso   1.00
C1258  C     0.85759   0.45279   0.75204   0.00000  Uiso   1.00
C1259  C     0.85505   0.55857   0.86860   0.00000  Uiso   1.00
C1260  C     0.89452   0.43495   0.75230   0.00000  Uiso   1.00
C1261  C     0.78736   0.54748   0.83793   0.00000  Uiso   1.00
C1262  C     0.82406   0.56729   0.83688   0.00000  Uiso   1.00
C1263  C     0.88465   0.58193   0.62576   0.00000  Uiso   1.00
C1264  C     0.87348   0.40426   0.67566   0.00000  Uiso   1.00
C1265  C     0.87013   0.40083   0.92779   0.00000  Uiso   1.00
C1266  C     0.83316   0.59319   0.54387   0.00000  Uiso   1.00
C1267  C     0.89564   0.43998   0.99327   0.00000  Uiso   1.00
C1268  C     0.86089   0.46019   0.99134   0.00000  Uiso   1.00
C1269  C     0.88846   0.75243   0.00570   0.00000  Uiso   1.00
C1270  C     0.79174   0.78606   0.46934   0.00000  Uiso   1.00
C1271  C     0.90097   0.60117   0.08185   0.00000  Uiso   1.00
C1272  C     0.87214   0.60587   0.04555   0.00000  Uiso   1.00
C1273  C     0.86929   0.61290   0.29907   0.00000  Uiso   1.00
C1274  C     0.85422   0.76531   0.25625   0.00000  Uiso   1.00
C1275  C     0.93532   0.62458   0.08310   0.00000  Uiso   1.00
C1276  C     0.88886   0.74603   0.25470   0.00000  Uiso   1.00
C1277  C     0.82479   0.76500   0.21632   0.00000  Uiso   1.00
C1278  C     0.93490   0.70677   0.21109   0.00000  Uiso   1.00
C1279  C     0.89794   0.72752   0.21008   0.00000  Uiso   1.00
C1280  C     0.93200   0.62913   0.33534   0.00000  Uiso   1.00
C1281  C     0.83213   0.73451   0.43848   0.00000  Uiso   1.00
C1282  C     0.86749   0.71600   0.43794   0.00000  Uiso   1.00
C1283  C     0.82565   0.75976   0.47562   0.00000  Uiso   1.00
C1284  C     0.93414   0.70585   0.46939   0.00000  Uiso   1.00
C1285  C     0.89623   0.72199   0.47413   0.00000  Uiso   1.00
C1286  C     0.83279   0.74518   0.17351   0.00000  Uiso   1.00
C1287  C     0.86795   0.72435   0.17145   0.00000  Uiso   1.00
C1288  C     0.79031   0.78960   0.21567   0.00000  Uiso   1.00
C1289  C     0.85228   0.77163   0.00495   0.00000  Uiso   1.00
C1290  C     0.89662   0.60832   0.33599   0.00000  Uiso   1.00
C1291  C     0.78686   0.78722   0.71693   0.00000  Uiso   1.00
C1292  C     0.79136   0.78937   0.96447   0.00000  Uiso   1.00
C1293  C     0.86433   0.61535   0.80105   0.00000  Uiso   1.00
C1294  C     0.93242   0.62827   0.58796   0.00000  Uiso   1.00
C1295  C     0.83143   0.74248   0.67519   0.00000  Uiso   1.00
C1296  C     0.86693   0.72393   0.67234   0.00000  Uiso   1.00
C1297  C     0.82025   0.76299   0.71687   0.00000  Uiso   1.00
C1298  C     0.93255   0.70598   0.71111   0.00000  Uiso   1.00
C1299  C     0.89380   0.72666   0.71326   0.00000  Uiso   1.00
C1300  C     0.88973   0.74603   0.51277   0.00000  Uiso   1.00
C1301  C     0.87116   0.61061   0.54376   0.00000  Uiso   1.00
C1302  C     0.93105   0.62671   0.83054   0.00000  Uiso   1.00
C1303  C     0.83517   0.74117   0.92681   0.00000  Uiso   1.00
C1304  C     0.86939   0.72312   0.92815   0.00000  Uiso   1.00
C1305  C     0.82636   0.76513   0.96625   0.00000  Uiso   1.00
C1306  C     0.93260   0.70590   0.96371   0.00000  Uiso   1.00
C1307  C     0.89707   0.72787   0.96706   0.00000  Uiso   1.00
C1308  C     0.84530   0.76372   0.75940   0.00000  Uiso   1.00
C1309  C     0.88169   0.74485   0.75828   0.00000  Uiso   1.00
C1310  C     0.85327   0.76506   0.51502   0.00000  Uiso   1.00
C1311  C     0.89624   0.60552   0.58787   0.00000  Uiso   1.00
C1312  C     0.89471   0.60422   0.83131   0.00000  Uiso   1.00
C1313  C     0.87033   0.95208   0.13401   0.00000  Uiso   1.00
C1314  C     0.83292   0.93647   0.12930   0.00000  Uiso   1.00
C1315  C     0.89264   0.91535   0.06065   0.00000  Uiso   1.00
C1316  C     0.85637   0.89976   0.05546   0.00000  Uiso   1.00
C1317  C     0.93687   0.96363   0.09686   0.00000  Uiso   1.00
C1318  C     0.89982   0.94316   0.09697   0.00000  Uiso   1.00
C1319  C     0.78900   0.88892   0.08643   0.00000  Uiso   1.00
C1320  C     0.82618   0.91007   0.08995   0.00000  Uiso   1.00
C1321  C     0.87826   0.94094   0.38818   0.00000  Uiso   1.00
C1322  C     0.84109   0.92433   0.38418   0.00000  Uiso   1.00
C1323  C     0.89753   0.91437   0.30814   0.00000  Uiso   1.00
C1324  C     0.85967   0.89783   0.30364   0.00000  Uiso   1.00
C1325  C     0.94105   0.96157   0.34529   0.00000  Uiso   1.00
C1326  C     0.90822   0.93593   0.35115   0.00000  Uiso   1.00
C1327  C     0.79746   0.87686   0.34073   0.00000  Uiso   1.00
C1328  C     0.83232   0.90066   0.34297   0.00000  Uiso   1.00
C1329  C     0.87065   0.95179   0.62741   0.00000  Uiso   1.00
C1330  C     0.83452   0.93241   0.62668   0.00000  Uiso   1.00
C1331  C     0.89611   0.91706   0.55523   0.00000  Uiso   1.00
C1332  C     0.85959   0.89678   0.55524   0.00000  Uiso   1.00
C1333  C     0.93481   0.96850   0.59128   0.00000  Uiso   1.00
C1334  C     0.89971   0.94471   0.59310   0.00000  Uiso   1.00
C1335  C     0.79497   0.88150   0.59152   0.00000  Uiso   1.00
C1336  C     0.83029   0.90331   0.59121   0.00000  Uiso   1.00
C1337  C     0.89541   0.91820   0.80535   0.00000  Uiso   1.00
C1338  C     0.86006   0.89941   0.79995   0.00000  Uiso   1.00
C1339  C     0.87334   0.93933   0.88840   0.00000  Uiso   1.00
C1340  C     0.83966   0.91986   0.88120   0.00000  Uiso   1.00
C1341  C     0.93601   0.96391   0.84742   0.00000  Uiso   1.00
C1342  C     0.90059   0.93995   0.84657   0.00000  Uiso   1.00
C1343  C     0.79608   0.87631   0.83764   0.00000  Uiso   1.00
C1344  C     0.83211   0.89955   0.83883   0.00000  Uiso   1.00
O1345  O     0.20028   0.14132   0.00361   0.00000  Uiso   1.00
O1346  O     0.02650   0.03833   0.26302   0.00000  Uiso   1.00
O1347  O     0.03290   0.03802   0.42638   0.00000  Uiso   1.00
O1348  O     0.19866   0.14003   0.25364   0.00000  Uiso   1.00
O1349  O     0.20189   0.13781   0.42115   0.00000  Uiso   1.00
O1350  O     0.20494   0.13598   0.16843   0.00000  Uiso   1.00
O1351  O     0.03127   0.03302   0.17527   0.00000  Uiso   1.00
O1352  O     0.02526   0.04423   0.01223   0.00000  Uiso   1.00
O1353  O     0.20574   0.13617   0.75527   0.00000  Uiso   1.00
O1354  O     0.03065   0.03294   0.92610   0.00000  Uiso   1.00
O1355  O     0.03171   0.03591   0.76236   0.00000  Uiso   1.00
O1356  O     0.20299   0.13631   0.91794   0.00000  Uiso   1.00
O1357  O     0.20154   0.14076   0.50960   0.00000  Uiso   1.00
O1358  O     0.20781   0.13313   0.66693   0.00000  Uiso   1.00
O1359  O     0.03396   0.03340   0.67423   0.00000  Uiso   1.00
O1360  O     0.02795   0.04294   0.51338   0.00000  Uiso   1.00
O1361  O     0.02489   0.38517   0.25585   0.00000  Uiso   1.00
O1362  O     0.03241   0.31433   0.38652   0.00000  Uiso   1.00
O1363  O     0.03038   0.37002   0.42239   0.00000  Uiso   1.00
O1364  O     0.19797   0.20937   0.04639   0.00000  Uiso   1.00
O1365  O     0.19984   0.21055   0.37979   0.00000  Uiso   1.00
O1366  O     0.19816   0.20746   0.13424   0.00000  Uiso   1.00
O1367  O     0.03300   0.32003   0.29785   0.00000  Uiso   1.00
O1368  O     0.03099   0.31656   0.04201   0.00000  Uiso   1.00
O1369  O     0.03272   0.37462   0.16915   0.00000  Uiso   1.00
O1370  O     0.02616   0.31102   0.13090   0.00000  Uiso   1.00
O1371  O     0.20519   0.21385   0.29144   0.00000  Uiso   1.00
O1372  O     0.02360   0.37825   0.00510   0.00000  Uiso   1.00
O1373  O     0.03017   0.36989   0.76039   0.00000  Uiso   1.00
O1374  O     0.20266   0.21146   0.79277   0.00000  Uiso   1.00
O1375  O     0.03016   0.31293   0.88001   0.00000  Uiso   1.00
O1376  O     0.20079   0.20975   0.63316   0.00000  Uiso   1.00
O1377  O     0.02841   0.31413   0.79397   0.00000  Uiso   1.00
O1378  O     0.02996   0.31487   0.54474   0.00000  Uiso   1.00
O1379  O     0.02597   0.37440   0.67262   0.00000  Uiso   1.00
O1380  O     0.02839   0.31521   0.63546   0.00000  Uiso   1.00
O1381  O     0.02603   0.37363   0.91785   0.00000  Uiso   1.00
O1382  O     0.20017   0.21461   0.54811   0.00000  Uiso   1.00
O1383  O     0.03178   0.37153   0.51046   0.00000  Uiso   1.00
O1384  O     0.20324   0.21139   0.87934   0.00000  Uiso   1.00
O1385  O     0.20006   0.53095   0.13875   0.00000  Uiso   1.00
O1386  O     0.19639   0.52552   0.38349   0.00000  Uiso   1.00
O1387  O     0.20106   0.53346   0.29656   0.00000  Uiso   1.00
O1388  O     0.20679   0.46889   0.42879   0.00000  Uiso   1.00
O1389  O     0.20112   0.47982   0.26449   0.00000  Uiso   1.00
O1390  O     0.20209   0.53220   0.05199   0.00000  Uiso   1.00
O1391  O     0.19971   0.47841   0.17590   0.00000  Uiso   1.00
O1392  O     0.19923   0.47979   0.00744   0.00000  Uiso   1.00
O1393  O     0.20168   0.47726   0.51546   0.00000  Uiso   1.00
O1394  O     0.19816   0.53218   0.79818   0.00000  Uiso   1.00
O1395  O     0.20047   0.54055   0.88807   0.00000  Uiso   1.00
O1396  O     0.20365   0.53720   0.54707   0.00000  Uiso   1.00
O1397  O     0.19907   0.53099   0.63483   0.00000  Uiso   1.00
O1398  O     0.20423   0.47785   0.92273   0.00000  Uiso   1.00
O1399  O     0.20063   0.47713   0.75536   0.00000  Uiso   1.00
O1400  O     0.19978   0.47963   0.66646   0.00000  Uiso   1.00
O1401  O     0.02884   0.63583   0.13321   0.00000  Uiso   1.00
O1402  O     0.03042   0.63752   0.38238   0.00000  Uiso   1.00
O1403  O     0.02544   0.70280   0.41756   0.00000  Uiso   1.00
O1404  O     0.02392   0.62837   0.04770   0.00000  Uiso   1.00
O1405  O     0.02401   0.63047   0.29469   0.00000  Uiso   1.00
O1406  O     0.02819   0.69879   0.25440   0.00000  Uiso   1.00
O1407  O     0.02262   0.70425   0.16809   0.00000  Uiso   1.00
O1408  O     0.03280   0.69096   0.00108   0.00000  Uiso   1.00
O1409  O     0.02714   0.63257   0.63257   0.00000  Uiso   1.00
O1410  O     0.02737   0.69774   0.50562   0.00000  Uiso   1.00
O1411  O     0.02290   0.63107   0.87990   0.00000  Uiso   1.00
O1412  O     0.02504   0.69995   0.91497   0.00000  Uiso   1.00
O1413  O     0.02281   0.62810   0.79123   0.00000  Uiso   1.00
O1414  O     0.02610   0.70170   0.75863   0.00000  Uiso   1.00
O1415  O     0.02347   0.70507   0.67213   0.00000  Uiso   1.00
O1416  O     0.02651   0.62819   0.54524   0.00000  Uiso   1.00
O1417  O     0.19564   0.80788   0.25921   0.00000  Uiso   1.00
O1418  O     0.03214   0.98118   0.38786   0.00000  Uiso   1.00
O1419  O     0.02810   0.97699   0.13339   0.00000  Uiso   1.00
O1420  O     0.03287   0.98409   0.04671   0.00000  Uiso   1.00
O1421  O     0.19980   0.87853   0.30101   0.00000  Uiso   1.00
O1422  O     0.19236   0.87141   0.04822   0.00000  Uiso   1.00
O1423  O     0.20156   0.87684   0.13291   0.00000  Uiso   1.00
O1424  O     0.03370   0.98303   0.29913   0.00000  Uiso   1.00
O1425  O     0.20698   0.88079   0.38949   0.00000  Uiso   1.00
O1426  O     0.19579   0.80803   0.42681   0.00000  Uiso   1.00
O1427  O     0.19898   0.80305   0.17328   0.00000  Uiso   1.00
O1428  O     0.19539   0.80117   0.01142   0.00000  Uiso   1.00
O1429  O     0.02989   0.97718   0.88314   0.00000  Uiso   1.00
O1430  O     0.20154   0.87783   0.88553   0.00000  Uiso   1.00
O1431  O     0.03118   0.98592   0.55044   0.00000  Uiso   1.00
O1432  O     0.20498   0.88357   0.55374   0.00000  Uiso   1.00
O1433  O     0.02797   0.97979   0.63718   0.00000  Uiso   1.00
O1434  O     0.20307   0.87826   0.64134   0.00000  Uiso   1.00
O1435  O     0.02780   0.98136   0.79574   0.00000  Uiso   1.00
O1436  O     0.19839   0.87262   0.79635   0.00000  Uiso   1.00
O1437  O     0.20313   0.80476   0.92329   0.00000  Uiso   1.00
O1438  O     0.19460   0.81253   0.51581   0.00000  Uiso   1.00
O1439  O     0.20365   0.80051   0.75844   0.00000  Uiso   1.00
O1440  O     0.19693   0.80854   0.67273   0.00000  Uiso   1.00
O1441  O     0.45224   0.04368   0.00957   0.00000  Uiso   1.00
O1442  O     0.28302   0.14765   0.25670   0.00000  Uiso   1.00
O1443  O     0.27735   0.14640   0.41927   0.00000  Uiso   1.00
O1444  O     0.44793   0.02962   0.26504   0.00000  Uiso   1.00
O1445  O     0.45010   0.03847   0.42269   0.00000  Uiso   1.00
O1446  O     0.45455   0.04062   0.17843   0.00000  Uiso   1.00
O1447  O     0.28123   0.14280   0.16915   0.00000  Uiso   1.00
O1448  O     0.28105   0.15165   0.00850   0.00000  Uiso   1.00
O1449  O     0.28142   0.14595   0.92117   0.00000  Uiso   1.00
O1450  O     0.28345   0.15177   0.75468   0.00000  Uiso   1.00
O1451  O     0.45386   0.03973   0.50917   0.00000  Uiso   1.00
O1452  O     0.45077   0.03759   0.75765   0.00000  Uiso   1.00
O1453  O     0.45229   0.04297   0.92123   0.00000  Uiso   1.00
O1454  O     0.45528   0.04306   0.67311   0.00000  Uiso   1.00
O1455  O     0.28078   0.14889   0.66748   0.00000  Uiso   1.00
O1456  O     0.28066   0.15411   0.50855   0.00000  Uiso   1.00
O1457  O     0.45731   0.29842   0.29829   0.00000  Uiso   1.00
O1458  O     0.45221   0.36995   0.26769   0.00000  Uiso   1.00
O1459  O     0.45232   0.37746   0.01079   0.00000  Uiso   1.00
O1460  O     0.44862   0.36483   0.42238   0.00000  Uiso   1.00
O1461  O     0.45383   0.30072   0.13765   0.00000  Uiso   1.00
O1462  O     0.44815   0.30563   0.05155   0.00000  Uiso   1.00
O1463  O     0.45018   0.37293   0.17944   0.00000  Uiso   1.00
O1464  O     0.45545   0.29711   0.38645   0.00000  Uiso   1.00
O1465  O     0.27543   0.21156   0.04203   0.00000  Uiso   1.00
O1466  O     0.28069   0.20027   0.29386   0.00000  Uiso   1.00
O1467  O     0.28145   0.20229   0.12875   0.00000  Uiso   1.00
O1468  O     0.27603   0.20414   0.38146   0.00000  Uiso   1.00
O1469  O     0.45143   0.36755   0.51244   0.00000  Uiso   1.00
O1470  O     0.45584   0.37420   0.75888   0.00000  Uiso   1.00
O1471  O     0.45920   0.29966   0.79766   0.00000  Uiso   1.00
O1472  O     0.44580   0.36560   0.92400   0.00000  Uiso   1.00
O1473  O     0.45723   0.29874   0.88502   0.00000  Uiso   1.00
O1474  O     0.45310   0.29653   0.63813   0.00000  Uiso   1.00
O1475  O     0.45226   0.29701   0.55057   0.00000  Uiso   1.00
O1476  O     0.45182   0.36584   0.67304   0.00000  Uiso   1.00
O1477  O     0.27312   0.21273   0.54118   0.00000  Uiso   1.00
O1478  O     0.28320   0.20102   0.88263   0.00000  Uiso   1.00
O1479  O     0.27586   0.20508   0.62907   0.00000  Uiso   1.00
O1480  O     0.27924   0.20518   0.79347   0.00000  Uiso   1.00
O1481  O     0.27803   0.54263   0.30044   0.00000  Uiso   1.00
O1482  O     0.27579   0.54386   0.13830   0.00000  Uiso   1.00
O1483  O     0.28100   0.47057   0.42291   0.00000  Uiso   1.00
O1484  O     0.27273   0.46796   0.01170   0.00000  Uiso   1.00
O1485  O     0.28062   0.53917   0.05100   0.00000  Uiso   1.00
O1486  O     0.27989   0.46953   0.17162   0.00000  Uiso   1.00
O1487  O     0.27808   0.54041   0.38970   0.00000  Uiso   1.00
O1488  O     0.27896   0.47201   0.26031   0.00000  Uiso   1.00
O1489  O     0.28105   0.47601   0.92465   0.00000  Uiso   1.00
O1490  O     0.27746   0.54510   0.63516   0.00000  Uiso   1.00
O1491  O     0.28085   0.47136   0.76253   0.00000  Uiso   1.00
O1492  O     0.27564   0.54435   0.79708   0.00000  Uiso   1.00
O1493  O     0.27849   0.46981   0.51151   0.00000  Uiso   1.00
O1494  O     0.27994   0.47033   0.67260   0.00000  Uiso   1.00
O1495  O     0.27710   0.54380   0.88486   0.00000  Uiso   1.00
O1496  O     0.28006   0.54271   0.54786   0.00000  Uiso   1.00
O1497  O     0.44954   0.64658   0.29397   0.00000  Uiso   1.00
O1498  O     0.44502   0.70733   0.17017   0.00000  Uiso   1.00
O1499  O     0.44609   0.70601   0.25799   0.00000  Uiso   1.00
O1500  O     0.44439   0.65168   0.04736   0.00000  Uiso   1.00
O1501  O     0.44989   0.71192   0.41958   0.00000  Uiso   1.00
O1502  O     0.45266   0.64695   0.38213   0.00000  Uiso   1.00
O1503  O     0.44847   0.64862   0.13205   0.00000  Uiso   1.00
O1504  O     0.44881   0.64755   0.79030   0.00000  Uiso   1.00
O1505  O     0.44581   0.64614   0.87791   0.00000  Uiso   1.00
O1506  O     0.44523   0.65572   0.54300   0.00000  Uiso   1.00
O1507  O     0.44439   0.70290   0.75916   0.00000  Uiso   1.00
O1508  O     0.44403   0.70666   0.90973   0.00000  Uiso   1.00
O1509  O     0.44410   0.70578   0.50444   0.00000  Uiso   1.00
O1510  O     0.44569   0.70925   0.67264   0.00000  Uiso   1.00
O1511  O     0.44733   0.65228   0.63061   0.00000  Uiso   1.00
O1512  O     0.44725   0.70844   0.99759   0.00000  Uiso   1.00
O1513  O     0.27839   0.86866   0.30154   0.00000  Uiso   1.00
O1514  O     0.27230   0.80980   0.26762   0.00000  Uiso   1.00
O1515  O     0.27417   0.80694   0.42280   0.00000  Uiso   1.00
O1516  O     0.45633   0.96149   0.29989   0.00000  Uiso   1.00
O1517  O     0.28089   0.86104   0.13471   0.00000  Uiso   1.00
O1518  O     0.44506   0.97106   0.13267   0.00000  Uiso   1.00
O1519  O     0.27572   0.86380   0.04428   0.00000  Uiso   1.00
O1520  O     0.44950   0.96988   0.04350   0.00000  Uiso   1.00
O1521  O     0.45490   0.96472   0.38866   0.00000  Uiso   1.00
O1522  O     0.28058   0.86342   0.38974   0.00000  Uiso   1.00
O1523  O     0.27011   0.80563   0.00991   0.00000  Uiso   1.00
O1524  O     0.27504   0.81050   0.17765   0.00000  Uiso   1.00
O1525  O     0.27668   0.87048   0.88739   0.00000  Uiso   1.00
O1526  O     0.27534   0.81151   0.51027   0.00000  Uiso   1.00
O1527  O     0.27878   0.86866   0.79799   0.00000  Uiso   1.00
O1528  O     0.45093   0.96688   0.79572   0.00000  Uiso   1.00
O1529  O     0.27961   0.87208   0.63725   0.00000  Uiso   1.00
O1530  O     0.45591   0.97076   0.63377   0.00000  Uiso   1.00
O1531  O     0.28177   0.86990   0.54921   0.00000  Uiso   1.00
O1532  O     0.45830   0.96560   0.54833   0.00000  Uiso   1.00
O1533  O     0.45001   0.96986   0.88362   0.00000  Uiso   1.00
O1534  O     0.28239   0.81614   0.92433   0.00000  Uiso   1.00
O1535  O     0.27883   0.81128   0.76292   0.00000  Uiso   1.00
O1536  O     0.27648   0.81009   0.67286   0.00000  Uiso   1.00
O1537  O     0.70293   0.13836   0.25841   0.00000  Uiso   1.00
O1538  O     0.70235   0.13872   0.00807   0.00000  Uiso   1.00
O1539  O     0.53125   0.03535   0.42159   0.00000  Uiso   1.00
O1540  O     0.52978   0.03215   0.25998   0.00000  Uiso   1.00
O1541  O     0.70739   0.13160   0.42157   0.00000  Uiso   1.00
O1542  O     0.70153   0.13329   0.17136   0.00000  Uiso   1.00
O1543  O     0.52853   0.03152   0.16845   0.00000  Uiso   1.00
O1544  O     0.52998   0.03194   0.00704   0.00000  Uiso   1.00
O1545  O     0.70084   0.13656   0.91777   0.00000  Uiso   1.00
O1546  O     0.53304   0.03058   0.91945   0.00000  Uiso   1.00
O1547  O     0.53413   0.02781   0.76285   0.00000  Uiso   1.00
O1548  O     0.53241   0.03242   0.50929   0.00000  Uiso   1.00
O1549  O     0.70875   0.13254   0.66957   0.00000  Uiso   1.00
O1550  O     0.53247   0.03424   0.67550   0.00000  Uiso   1.00
O1551  O     0.70641   0.13605   0.75624   0.00000  Uiso   1.00
O1552  O     0.70171   0.14181   0.50772   0.00000  Uiso   1.00
O1553  O     0.53043   0.36571   0.25958   0.00000  Uiso   1.00
O1554  O     0.70208   0.20409   0.03904   0.00000  Uiso   1.00
O1555  O     0.53121   0.30514   0.38745   0.00000  Uiso   1.00
O1556  O     0.52506   0.37255   0.17334   0.00000  Uiso   1.00
O1557  O     0.52780   0.36956   0.01182   0.00000  Uiso   1.00
O1558  O     0.52615   0.30916   0.05109   0.00000  Uiso   1.00
O1559  O     0.53361   0.30865   0.29820   0.00000  Uiso   1.00
O1560  O     0.53433   0.31691   0.13715   0.00000  Uiso   1.00
O1561  O     0.52821   0.36445   0.42678   0.00000  Uiso   1.00
O1562  O     0.71187   0.21203   0.29386   0.00000  Uiso   1.00
O1563  O     0.70076   0.20443   0.12651   0.00000  Uiso   1.00
O1564  O     0.70030   0.20058   0.37888   0.00000  Uiso   1.00
O1565  O     0.53373   0.36564   0.75523   0.00000  Uiso   1.00
O1566  O     0.52791   0.30487   0.88908   0.00000  Uiso   1.00
O1567  O     0.52540   0.36567   0.92400   0.00000  Uiso   1.00
O1568  O     0.70557   0.20998   0.79007   0.00000  Uiso   1.00
O1569  O     0.53232   0.35928   0.66655   0.00000  Uiso   1.00
O1570  O     0.70967   0.21169   0.54539   0.00000  Uiso   1.00
O1571  O     0.52901   0.30233   0.54880   0.00000  Uiso   1.00
O1572  O     0.53786   0.31535   0.80217   0.00000  Uiso   1.00
O1573  O     0.53075   0.29989   0.63661   0.00000  Uiso   1.00
O1574  O     0.53075   0.36064   0.51351   0.00000  Uiso   1.00
O1575  O     0.70136   0.20138   0.63331   0.00000  Uiso   1.00
O1576  O     0.70039   0.20624   0.87765   0.00000  Uiso   1.00
O1577  O     0.70060   0.54475   0.12835   0.00000  Uiso   1.00
O1578  O     0.69587   0.46795   0.41763   0.00000  Uiso   1.00
O1579  O     0.69572   0.47288   0.17060   0.00000  Uiso   1.00
O1580  O     0.69283   0.53548   0.37932   0.00000  Uiso   1.00
O1581  O     0.70078   0.46755   0.01065   0.00000  Uiso   1.00
O1582  O     0.69182   0.53722   0.04234   0.00000  Uiso   1.00
O1583  O     0.70560   0.46491   0.25370   0.00000  Uiso   1.00
O1584  O     0.69734   0.53802   0.29028   0.00000  Uiso   1.00
O1585  O     0.69596   0.53639   0.88099   0.00000  Uiso   1.00
O1586  O     0.69276   0.47236   0.50755   0.00000  Uiso   1.00
O1587  O     0.69907   0.46910   0.92289   0.00000  Uiso   1.00
O1588  O     0.70116   0.46576   0.75250   0.00000  Uiso   1.00
O1589  O     0.69655   0.54148   0.62972   0.00000  Uiso   1.00
O1590  O     0.69441   0.53693   0.79254   0.00000  Uiso   1.00
O1591  O     0.70110   0.46875   0.66572   0.00000  Uiso   1.00
O1592  O     0.69127   0.53810   0.54106   0.00000  Uiso   1.00
O1593  O     0.52903   0.65166   0.13193   0.00000  Uiso   1.00
O1594  O     0.53140   0.64928   0.38645   0.00000  Uiso   1.00
O1595  O     0.52510   0.64472   0.04365   0.00000  Uiso   1.00
O1596  O     0.53013   0.71567   0.41928   0.00000  Uiso   1.00
O1597  O     0.52882   0.64632   0.29776   0.00000  Uiso   1.00
O1598  O     0.52272   0.71422   0.25566   0.00000  Uiso   1.00
O1599  O     0.51908   0.72003   0.16696   0.00000  Uiso   1.00
O1600  O     0.52161   0.71470   0.00152   0.00000  Uiso   1.00
O1601  O     0.52177   0.64037   0.87864   0.00000  Uiso   1.00
O1602  O     0.52334   0.70921   0.91250   0.00000  Uiso   1.00
O1603  O     0.52251   0.63887   0.79404   0.00000  Uiso   1.00
O1604  O     0.52706   0.70997   0.75843   0.00000  Uiso   1.00
O1605  O     0.52432   0.71673   0.67016   0.00000  Uiso   1.00
O1606  O     0.52642   0.64671   0.63301   0.00000  Uiso   1.00
O1607  O     0.52383   0.64789   0.54438   0.00000  Uiso   1.00
O1608  O     0.51627   0.72293   0.50636   0.00000  Uiso   1.00
O1609  O     0.53194   0.97674   0.38589   0.00000  Uiso   1.00
O1610  O     0.53024   0.97684   0.05008   0.00000  Uiso   1.00
O1611  O     0.70434   0.86554   0.39279   0.00000  Uiso   1.00
O1612  O     0.70218   0.87246   0.05139   0.00000  Uiso   1.00
O1613  O     0.52597   0.97358   0.13764   0.00000  Uiso   1.00
O1614  O     0.70498   0.87283   0.13914   0.00000  Uiso   1.00
O1615  O     0.69213   0.81541   0.01432   0.00000  Uiso   1.00
O1616  O     0.53454   0.97383   0.29968   0.00000  Uiso   1.00
O1617  O     0.69637   0.81044   0.26231   0.00000  Uiso   1.00
O1618  O     0.70247   0.86503   0.30571   0.00000  Uiso   1.00
O1619  O     0.70037   0.81153   0.17411   0.00000  Uiso   1.00
O1620  O     0.70417   0.80237   0.42811   0.00000  Uiso   1.00
O1621  O     0.52782   0.97244   0.88449   0.00000  Uiso   1.00
O1622  O     0.69735   0.81943   0.51129   0.00000  Uiso   1.00
O1623  O     0.53582   0.97940   0.54647   0.00000  Uiso   1.00
O1624  O     0.69673   0.81385   0.67145   0.00000  Uiso   1.00
O1625  O     0.70136   0.87149   0.54924   0.00000  Uiso   1.00
O1626  O     0.70474   0.87140   0.88339   0.00000  Uiso   1.00
O1627  O     0.53360   0.98112   0.63337   0.00000  Uiso   1.00
O1628  O     0.70919   0.87753   0.63787   0.00000  Uiso   1.00
O1629  O     0.69810   0.80767   0.75890   0.00000  Uiso   1.00
O1630  O     0.52761   0.96867   0.79683   0.00000  Uiso   1.00
O1631  O     0.70150   0.80943   0.92778   0.00000  Uiso   1.00
O1632  O     0.69518   0.86315   0.79823   0.00000  Uiso   1.00
O1633  O     0.78399   0.19981   0.29081   0.00000  Uiso   1.00
O1634  O     0.78287   0.14276   0.25365   0.00000  Uiso   1.00
O1635  O     0.95020   0.04233   0.26525   0.00000  Uiso   1.00
O1636  O     0.95005   0.04441   0.41996   0.00000  Uiso   1.00
O1637  O     0.94946   0.04223   0.01308   0.00000  Uiso   1.00
O1638  O     0.78329   0.14294   0.41910   0.00000  Uiso   1.00
O1639  O     0.95583   0.04441   0.17811   0.00000  Uiso   1.00
O1640  O     0.78152   0.14356   0.16558   0.00000  Uiso   1.00
O1641  O     0.78494   0.14467   0.00425   0.00000  Uiso   1.00
O1642  O     0.95192   0.03945   0.92467   0.00000  Uiso   1.00
O1643  O     0.78523   0.15124   0.75732   0.00000  Uiso   1.00
O1644  O     0.95676   0.05200   0.76550   0.00000  Uiso   1.00
O1645  O     0.77863   0.13866   0.91555   0.00000  Uiso   1.00
O1646  O     0.95797   0.05084   0.67677   0.00000  Uiso   1.00
O1647  O     0.78038   0.14163   0.67012   0.00000  Uiso   1.00
O1648  O     0.77966   0.14165   0.50653   0.00000  Uiso   1.00
O1649  O     0.95136   0.04539   0.50982   0.00000  Uiso   1.00
O1650  O     0.78370   0.19823   0.62870   0.00000  Uiso   1.00
O1651  O     0.78207   0.19983   0.88122   0.00000  Uiso   1.00
O1652  O     0.94859   0.37881   0.25819   0.00000  Uiso   1.00
O1653  O     0.94423   0.37269   0.41784   0.00000  Uiso   1.00
O1654  O     0.95828   0.30232   0.37850   0.00000  Uiso   1.00
O1655  O     0.77840   0.20528   0.04612   0.00000  Uiso   1.00
O1656  O     0.95082   0.37785   0.00369   0.00000  Uiso   1.00
O1657  O     0.94925   0.31407   0.13767   0.00000  Uiso   1.00
O1658  O     0.94860   0.31352   0.04855   0.00000  Uiso   1.00
O1659  O     0.95525   0.38237   0.17386   0.00000  Uiso   1.00
O1660  O     0.95038   0.31404   0.29291   0.00000  Uiso   1.00
O1661  O     0.78006   0.20271   0.13369   0.00000  Uiso   1.00
O1662  O     0.78013   0.20146   0.37829   0.00000  Uiso   1.00
O1663  O     0.95220   0.38074   0.75760   0.00000  Uiso   1.00
O1664  O     0.78426   0.20070   0.53967   0.00000  Uiso   1.00
O1665  O     0.94880   0.37396   0.91636   0.00000  Uiso   1.00
O1666  O     0.95238   0.30439   0.79428   0.00000  Uiso   1.00
O1667  O     0.95256   0.30626   0.63311   0.00000  Uiso   1.00
O1668  O     0.95010   0.30991   0.54533   0.00000  Uiso   1.00
O1669  O     0.94749   0.37286   0.66918   0.00000  Uiso   1.00
O1670  O     0.95311   0.30376   0.88069   0.00000  Uiso   1.00
O1671  O     0.95074   0.38167   0.50530   0.00000  Uiso   1.00
O1672  O     0.77736   0.20761   0.79305   0.00000  Uiso   1.00
O1673  O     0.77286   0.53631   0.04468   0.00000  Uiso   1.00
O1674  O     0.77998   0.47715   0.25451   0.00000  Uiso   1.00
O1675  O     0.77333   0.53603   0.38056   0.00000  Uiso   1.00
O1676  O     0.77786   0.47906   0.41938   0.00000  Uiso   1.00
O1677  O     0.77353   0.53612   0.13357   0.00000  Uiso   1.00
O1678  O     0.77608   0.47954   0.16526   0.00000  Uiso   1.00
O1679  O     0.77895   0.48122   0.00585   0.00000  Uiso   1.00
O1680  O     0.77763   0.53355   0.29328   0.00000  Uiso   1.00
O1681  O     0.77551   0.53497   0.79471   0.00000  Uiso   1.00
O1682  O     0.77481   0.47779   0.91841   0.00000  Uiso   1.00
O1683  O     0.77586   0.47689   0.76073   0.00000  Uiso   1.00
O1684  O     0.76993   0.54109   0.54060   0.00000  Uiso   1.00
O1685  O     0.77546   0.53795   0.88342   0.00000  Uiso   1.00
O1686  O     0.77323   0.47956   0.50451   0.00000  Uiso   1.00
O1687  O     0.77849   0.48046   0.67338   0.00000  Uiso   1.00
O1688  O     0.77513   0.53532   0.62726   0.00000  Uiso   1.00
O1689  O     0.94605   0.63881   0.29069   0.00000  Uiso   1.00
O1690  O     0.94826   0.63645   0.38047   0.00000  Uiso   1.00
O1691  O     0.94776   0.69583   0.25363   0.00000  Uiso   1.00
O1692  O     0.94755   0.69884   0.42467   0.00000  Uiso   1.00
O1693  O     0.94877   0.69673   0.00728   0.00000  Uiso   1.00
O1694  O     0.78437   0.79813   0.42388   0.00000  Uiso   1.00
O1695  O     0.94805   0.69663   0.16692   0.00000  Uiso   1.00
O1696  O     0.95144   0.63453   0.03976   0.00000  Uiso   1.00
O1697  O     0.94837   0.63658   0.12591   0.00000  Uiso   1.00
O1698  O     0.77514   0.79876   0.00951   0.00000  Uiso   1.00
O1699  O     0.76857   0.79300   0.25572   0.00000  Uiso   1.00
O1700  O     0.94625   0.63623   0.78721   0.00000  Uiso   1.00
O1701  O     0.94779   0.69629   0.66752   0.00000  Uiso   1.00
O1702  O     0.95077   0.69443   0.51065   0.00000  Uiso   1.00
O1703  O     0.94790   0.69555   0.75439   0.00000  Uiso   1.00
O1704  O     0.94605   0.69470   0.91874   0.00000  Uiso   1.00
O1705  O     0.94626   0.63358   0.87671   0.00000  Uiso   1.00
O1706  O     0.77161   0.79403   0.76209   0.00000  Uiso   1.00
O1707  O     0.94662   0.64103   0.63221   0.00000  Uiso   1.00
O1708  O     0.94840   0.63571   0.54603   0.00000  Uiso   1.00
O1709  O     0.77476   0.79829   0.51093   0.00000  Uiso   1.00
O1710  O     0.95119   0.97551   0.05358   0.00000  Uiso   1.00
O1711  O     0.78138   0.86933   0.38366   0.00000  Uiso   1.00
O1712  O     0.95853   0.97211   0.38782   0.00000  Uiso   1.00
O1713  O     0.95076   0.97214   0.29935   0.00000  Uiso   1.00
O1714  O     0.77391   0.88019   0.13250   0.00000  Uiso   1.00
O1715  O     0.78628   0.86275   0.29646   0.00000  Uiso   1.00
O1716  O     0.94993   0.97399   0.14188   0.00000  Uiso   1.00
O1717  O     0.78038   0.87200   0.04350   0.00000  Uiso   1.00
O1718  O     0.78677   0.81069   0.17733   0.00000  Uiso   1.00
O1719  O     0.95384   0.96971   0.89099   0.00000  Uiso   1.00
O1720  O     0.77974   0.87000   0.88171   0.00000  Uiso   1.00
O1721  O     0.95189   0.97723   0.54803   0.00000  Uiso   1.00
O1722  O     0.78500   0.86180   0.79473   0.00000  Uiso   1.00
O1723  O     0.94655   0.97896   0.80399   0.00000  Uiso   1.00
O1724  O     0.78341   0.86896   0.63437   0.00000  Uiso   1.00
O1725  O     0.94923   0.97839   0.63552   0.00000  Uiso   1.00
O1726  O     0.77954   0.87333   0.54772   0.00000  Uiso   1.00
O1727  O     0.77785   0.80320   0.67552   0.00000  Uiso   1.00
O1728  O     0.78178   0.80600   0.92257   0.00000  Uiso   1.00
O1729  O     0.22890   0.15182   0.33619   0.00000  Uiso   1.00
O1730  O     0.22355   0.19559   0.45963   0.00000  Uiso   1.00
O1731  O     0.22815   0.15424   0.08792   0.00000  Uiso   1.00
O1732  O     0.23245   0.19540   0.21104   0.00000  Uiso   1.00
O1733  O     0.23113   0.15447   0.83480   0.00000  Uiso   1.00
O1734  O     0.22079   0.19347   0.70918   0.00000  Uiso   1.00
O1735  O     0.22776   0.15235   0.58277   0.00000  Uiso   1.00
O1736  O     0.22649   0.19563   0.96186   0.00000  Uiso   1.00
O1737  O     0.24960   0.52882   0.46506   0.00000  Uiso   1.00
O1738  O     0.24900   0.48286   0.09429   0.00000  Uiso   1.00
O1739  O     0.24986   0.53081   0.71571   0.00000  Uiso   1.00
O1740  O     0.00259   0.68732   0.58626   0.00000  Uiso   1.00
O1741  O     0.22113   0.82110   0.34372   0.00000  Uiso   1.00
O1742  O     0.22606   0.81754   0.09653   0.00000  Uiso   1.00
O1743  O     0.22666   0.86449   0.46638   0.00000  Uiso   1.00
O1744  O     0.22496   0.86202   0.21882   0.00000  Uiso   1.00
O1745  O     0.22802   0.82281   0.59412   0.00000  Uiso   1.00
O1746  O     0.22960   0.86332   0.71970   0.00000  Uiso   1.00
O1747  O     0.22907   0.81878   0.84166   0.00000  Uiso   1.00
O1748  O     0.22353   0.86152   0.96808   0.00000  Uiso   1.00
O1749  O     0.47866   0.02202   0.34047   0.00000  Uiso   1.00
O1750  O     0.47979   0.02543   0.09041   0.00000  Uiso   1.00
O1751  O     0.48041   0.02597   0.84129   0.00000  Uiso   1.00
O1752  O     0.47848   0.02997   0.58900   0.00000  Uiso   1.00
O1753  O     0.48082   0.30952   0.46872   0.00000  Uiso   1.00
O1754  O     0.48670   0.35557   0.34329   0.00000  Uiso   1.00
O1755  O     0.48150   0.31471   0.21916   0.00000  Uiso   1.00
O1756  O     0.47632   0.36098   0.09533   0.00000  Uiso   1.00
O1757  O     0.47828   0.31616   0.96891   0.00000  Uiso   1.00
O1758  O     0.48123   0.35914   0.84361   0.00000  Uiso   1.00
O1759  O     0.48074   0.35299   0.59375   0.00000  Uiso   1.00
O1760  O     0.48331   0.31387   0.71903   0.00000  Uiso   1.00
O1761  O     0.25539   0.48374   0.34057   0.00000  Uiso   1.00
O1762  O     0.25084   0.52559   0.21841   0.00000  Uiso   1.00
O1763  O     0.25064   0.48535   0.59013   0.00000  Uiso   1.00
O1764  O     0.25117   0.48634   0.84150   0.00000  Uiso   1.00
O1765  O     0.25212   0.52865   0.96990   0.00000  Uiso   1.00
O1766  O     0.49398   0.70013   0.08818   0.00000  Uiso   1.00
O1767  O     0.49539   0.70201   0.33674   0.00000  Uiso   1.00
O1768  O     0.49935   0.65873   0.21195   0.00000  Uiso   1.00
O1769  O     0.49841   0.66129   0.46802   0.00000  Uiso   1.00
O1770  O     0.49604   0.70298   0.58882   0.00000  Uiso   1.00
O1771  O     0.49307   0.65373   0.96171   0.00000  Uiso   1.00
O1772  O     0.49901   0.69751   0.83520   0.00000  Uiso   1.00
O1773  O     0.49913   0.65402   0.70970   0.00000  Uiso   1.00
O1774  O     0.47765   0.98127   0.46818   0.00000  Uiso   1.00
O1775  O     0.47805   0.97902   0.21589   0.00000  Uiso   1.00
O1776  O     0.47759   0.98061   0.96606   0.00000  Uiso   1.00
O1777  O     0.48046   0.98390   0.71110   0.00000  Uiso   1.00
O1778  O     0.73167   0.19413   0.45936   0.00000  Uiso   1.00
O1779  O     0.73313   0.15013   0.33536   0.00000  Uiso   1.00
O1780  O     0.73356   0.14769   0.08504   0.00000  Uiso   1.00
O1781  O     0.72769   0.19160   0.21143   0.00000  Uiso   1.00
O1782  O     0.72975   0.15324   0.83573   0.00000  Uiso   1.00
O1783  O     0.73310   0.15290   0.58661   0.00000  Uiso   1.00
O1784  O     0.73178   0.19407   0.96132   0.00000  Uiso   1.00
O1785  O     0.73236   0.19503   0.71199   0.00000  Uiso   1.00
O1786  O     0.72667   0.48307   0.33642   0.00000  Uiso   1.00
O1787  O     0.72285   0.52856   0.46022   0.00000  Uiso   1.00
O1788  O     0.72876   0.48556   0.08911   0.00000  Uiso   1.00
O1789  O     0.72193   0.52824   0.21490   0.00000  Uiso   1.00
O1790  O     0.72193   0.52675   0.96349   0.00000  Uiso   1.00
O1791  O     0.72427   0.48369   0.83892   0.00000  Uiso   1.00
O1792  O     0.72488   0.52713   0.71468   0.00000  Uiso   1.00
O1793  O     0.73069   0.48332   0.58518   0.00000  Uiso   1.00
O1794  O     0.74626   0.81269   0.84367   0.00000  Uiso   1.00
O1795  O     0.74758   0.81343   0.59385   0.00000  Uiso   1.00
O1796  O     0.98269   0.02923   0.34736   0.00000  Uiso   1.00
O1797  O     0.97926   0.02899   0.09935   0.00000  Uiso   1.00
O1798  O     0.98102   0.03472   0.59733   0.00000  Uiso   1.00
O1799  O     0.98094   0.03106   0.84662   0.00000  Uiso   1.00
O1800  O     0.98748   0.32451   0.21575   0.00000  Uiso   1.00
O1801  O     0.97735   0.32196   0.46758   0.00000  Uiso   1.00
O1802  O     0.98274   0.36977   0.08990   0.00000  Uiso   1.00
O1803  O     0.98221   0.36718   0.34333   0.00000  Uiso   1.00
O1804  O     0.97549   0.36313   0.84011   0.00000  Uiso   1.00
O1805  O     0.98236   0.31976   0.96531   0.00000  Uiso   1.00
O1806  O     0.97854   0.32278   0.71275   0.00000  Uiso   1.00
O1807  O     0.97851   0.36453   0.58954   0.00000  Uiso   1.00
O1808  O     0.99166   0.69074   0.33761   0.00000  Uiso   1.00
O1809  O     0.99479   0.64336   0.21153   0.00000  Uiso   1.00
O1810  O     0.99391   0.64427   0.46345   0.00000  Uiso   1.00
O1811  O     0.99776   0.68854   0.08637   0.00000  Uiso   1.00
O1812  O     0.99305   0.64317   0.96138   0.00000  Uiso   1.00
O1813  O     0.99851   0.64432   0.70908   0.00000  Uiso   1.00
O1814  O     0.99525   0.68721   0.83681   0.00000  Uiso   1.00
O1815  O     0.98142   0.98828   0.47249   0.00000  Uiso   1.00
O1816  O     0.98270   0.98458   0.22112   0.00000  Uiso   1.00
O1817  O     0.75945   0.85513   0.46934   0.00000  Uiso   1.00
O1818  O     0.75340   0.86057   0.22137   0.00000  Uiso   1.00
O1819  O     0.75068   0.81914   0.09477   0.00000  Uiso   1.00
O1820  O     0.75192   0.81235   0.34311   0.00000  Uiso   1.00
O1821  O     0.98392   0.98820   0.97017   0.00000  Uiso   1.00
O1822  O     0.97487   0.99039   0.72167   0.00000  Uiso   1.00
O1823  O     0.75067   0.86193   0.96580   0.00000  Uiso   1.00
O1824  O     0.75132   0.85752   0.72189   0.00000  Uiso   1.00
