data_final_I-Co-SABVOH01
_audit_creation_date              2022-12-15
_audit_creation_method            'Materials Studio'
_symmetry_space_group_name_H-M    'P1'
_symmetry_Int_Tables_number       1
_symmetry_cell_setting            triclinic
loop_
_symmetry_equiv_pos_as_xyz
  x,y,z
_cell_length_a                    31.6290
_cell_length_b                    34.1825
_cell_length_c                    24.4736
_cell_angle_alpha                 90.0000
_cell_angle_beta                  90.0000
_cell_angle_gamma                 90.0000
loop_
_atom_site_label
_atom_site_type_symbol
_atom_site_fract_x
_atom_site_fract_y
_atom_site_fract_z
_atom_site_U_iso_or_equiv
_atom_site_adp_type
_atom_site_occupancy
Co1    Co    0.00108   0.00115   0.38216   0.00000  Uiso   1.00
Co2    Co    0.24991   0.16367   0.01077   0.00000  Uiso   1.00
Co3    Co    0.24964   0.16480   0.13446   0.00000  Uiso   1.00
Co4    Co    0.24964   0.16443   0.25979   0.00000  Uiso   1.00
Co5    Co    0.00048   0.00040   0.13398   0.00000  Uiso   1.00
Co6    Co    0.00196   0.00193   0.63258   0.00000  Uiso   1.00
Co7    Co    0.00232   0.00397   0.50826   0.00000  Uiso   1.00
Co8    Co    0.24848   0.16593   0.88668   0.00000  Uiso   1.00
Co9    Co    0.24991   0.16563   0.76029   0.00000  Uiso   1.00
Co10   Co    0.24975   0.50199   0.26310   0.00000  Uiso   1.00
Co11   Co    0.24731   0.49996   0.01488   0.00000  Uiso   1.00
Co12   Co    0.24786   0.50202   0.13841   0.00000  Uiso   1.00
Co13   Co    0.24655   0.50146   0.89074   0.00000  Uiso   1.00
Co14   Co    0.24862   0.49740   0.76602   0.00000  Uiso   1.00
Co15   Co    0.24880   0.49743   0.63987   0.00000  Uiso   1.00
Co16   Co    0.00062   0.66937   0.01210   0.00000  Uiso   1.00
Co17   Co    0.00180   0.66991   0.38497   0.00000  Uiso   1.00
Co18   Co    0.00037   0.67288   0.25942   0.00000  Uiso   1.00
Co19   Co    0.00150   0.66656   0.88586   0.00000  Uiso   1.00
Co20   Co    0.00251   0.66995   0.51131   0.00000  Uiso   1.00
Co21   Co    0.00223   0.66780   0.63540   0.00000  Uiso   1.00
Co22   Co    0.00233   0.66872   0.76008   0.00000  Uiso   1.00
Co23   Co    0.00044   0.99979   0.00849   0.00000  Uiso   1.00
Co24   Co    0.24934   0.83510   0.00948   0.00000  Uiso   1.00
Co25   Co    0.24924   0.83657   0.13557   0.00000  Uiso   1.00
Co26   Co    0.00174   0.99950   0.88303   0.00000  Uiso   1.00
Co27   Co    0.00280   0.99951   0.75791   0.00000  Uiso   1.00
Co28   Co    0.49885   0.00179   0.01249   0.00000  Uiso   1.00
Co29   Co    0.25026   0.16577   0.38617   0.00000  Uiso   1.00
Co30   Co    0.25172   0.16367   0.51083   0.00000  Uiso   1.00
Co31   Co    0.25065   0.16403   0.63515   0.00000  Uiso   1.00
Co32   Co    0.49778   0.33210   0.01000   0.00000  Uiso   1.00
Co33   Co    0.49948   0.33342   0.13499   0.00000  Uiso   1.00
Co34   Co    0.49862   0.33640   0.26023   0.00000  Uiso   1.00
Co35   Co    0.49719   0.33387   0.38602   0.00000  Uiso   1.00
Co36   Co    0.49724   0.33074   0.63635   0.00000  Uiso   1.00
Co37   Co    0.49803   0.32959   0.88534   0.00000  Uiso   1.00
Co38   Co    0.49769   0.33101   0.76148   0.00000  Uiso   1.00
Co39   Co    0.49770   0.33333   0.51096   0.00000  Uiso   1.00
Co40   Co    0.25073   0.50050   0.38986   0.00000  Uiso   1.00
Co41   Co    0.25024   0.49913   0.51523   0.00000  Uiso   1.00
Co42   Co    0.49969   0.66506   0.01012   0.00000  Uiso   1.00
Co43   Co    0.49792   0.66440   0.63501   0.00000  Uiso   1.00
Co44   Co    0.49637   0.66684   0.76095   0.00000  Uiso   1.00
Co45   Co    0.49699   0.66551   0.88691   0.00000  Uiso   1.00
Co46   Co    0.49987   0.66542   0.50980   0.00000  Uiso   1.00
Co47   Co    0.25315   0.83631   0.38383   0.00000  Uiso   1.00
Co48   Co    0.25107   0.83472   0.25941   0.00000  Uiso   1.00
Co49   Co    0.25154   0.83511   0.50836   0.00000  Uiso   1.00
Co50   Co    0.25110   0.83623   0.63232   0.00000  Uiso   1.00
Co51   Co    0.25114   0.83668   0.88406   0.00000  Uiso   1.00
Co52   Co    0.25159   0.83427   0.75810   0.00000  Uiso   1.00
Co53   Co    0.74898   0.16878   0.39190   0.00000  Uiso   1.00
Co54   Co    0.74945   0.16481   0.01621   0.00000  Uiso   1.00
Co55   Co    0.50285   0.00459   0.26264   0.00000  Uiso   1.00
Co56   Co    0.50334   0.00084   0.38866   0.00000  Uiso   1.00
Co57   Co    0.50051   0.00288   0.13697   0.00000  Uiso   1.00
Co58   Co    0.74944   0.16574   0.14251   0.00000  Uiso   1.00
Co59   Co    0.74820   0.16589   0.89195   0.00000  Uiso   1.00
Co60   Co    0.74861   0.16873   0.64045   0.00000  Uiso   1.00
Co61   Co    0.74746   0.16608   0.76624   0.00000  Uiso   1.00
Co62   Co    0.74776   0.16868   0.51585   0.00000  Uiso   1.00
Co63   Co    0.50015   0.00245   0.76346   0.00000  Uiso   1.00
Co64   Co    0.50206   0.00073   0.51340   0.00000  Uiso   1.00
Co65   Co    0.50017   0.00145   0.88812   0.00000  Uiso   1.00
Co66   Co    0.50057   0.00159   0.63777   0.00000  Uiso   1.00
Co67   Co    0.50143   0.66642   0.38414   0.00000  Uiso   1.00
Co68   Co    0.50067   0.66481   0.25882   0.00000  Uiso   1.00
Co69   Co    0.50174   0.66347   0.13363   0.00000  Uiso   1.00
Co70   Co    0.74980   0.83864   0.13374   0.00000  Uiso   1.00
Co71   Co    0.74978   0.83699   0.88350   0.00000  Uiso   1.00
Co72   Co    0.75034   0.16547   0.26654   0.00000  Uiso   1.00
Co73   Co    0.99958   0.00211   0.25717   0.00000  Uiso   1.00
Co74   Co    0.99890   0.32821   0.26610   0.00000  Uiso   1.00
Co75   Co    0.99846   0.32750   0.14189   0.00000  Uiso   1.00
Co76   Co    0.99662   0.32930   0.01609   0.00000  Uiso   1.00
Co77   Co    0.99839   0.32792   0.39199   0.00000  Uiso   1.00
Co78   Co    0.99764   0.32989   0.76574   0.00000  Uiso   1.00
Co79   Co    0.99774   0.33097   0.51634   0.00000  Uiso   1.00
Co80   Co    0.99858   0.32997   0.64108   0.00000  Uiso   1.00
Co81   Co    0.99641   0.32867   0.89085   0.00000  Uiso   1.00
Co82   Co    0.75155   0.49716   0.13732   0.00000  Uiso   1.00
Co83   Co    0.75263   0.49625   0.26363   0.00000  Uiso   1.00
Co84   Co    0.75214   0.49813   0.38602   0.00000  Uiso   1.00
Co85   Co    0.75119   0.49706   0.01204   0.00000  Uiso   1.00
Co86   Co    0.75111   0.50248   0.63713   0.00000  Uiso   1.00
Co87   Co    0.75147   0.50139   0.76019   0.00000  Uiso   1.00
Co88   Co    0.75237   0.50109   0.51113   0.00000  Uiso   1.00
Co89   Co    0.75301   0.50016   0.88697   0.00000  Uiso   1.00
Co90   Co    0.99988   0.67136   0.13647   0.00000  Uiso   1.00
Co91   Co    0.75055   0.83618   0.00771   0.00000  Uiso   1.00
Co92   Co    0.75137   0.83438   0.38503   0.00000  Uiso   1.00
Co93   Co    0.75121   0.83442   0.25972   0.00000  Uiso   1.00
Co94   Co    0.75007   0.83406   0.76022   0.00000  Uiso   1.00
Co95   Co    0.75056   0.83428   0.63481   0.00000  Uiso   1.00
Co96   Co    0.75152   0.83220   0.50938   0.00000  Uiso   1.00
I97    I     0.10837   0.13923   0.09834   0.00000  Uiso   1.00
I98    I     0.09949   0.13853   0.35472   0.00000  Uiso   1.00
I99    I     0.10318   0.13937   0.60136   0.00000  Uiso   1.00
I100   I     0.11068   0.14421   0.84483   0.00000  Uiso   1.00
I101   I     0.14634   0.30695   0.22986   0.00000  Uiso   1.00
I102   I     0.14522   0.31206   0.46947   0.00000  Uiso   1.00
I103   I     0.14016   0.31307   0.72727   0.00000  Uiso   1.00
I104   I     0.13929   0.30581   0.97844   0.00000  Uiso   1.00
I105   I     0.11129   0.47867   0.09500   0.00000  Uiso   1.00
I106   I     0.10877   0.47695   0.35430   0.00000  Uiso   1.00
I107   I     0.10771   0.47656   0.59120   0.00000  Uiso   1.00
I108   I     0.10270   0.47042   0.86104   0.00000  Uiso   1.00
I109   I     0.14691   0.64114   0.22970   0.00000  Uiso   1.00
I110   I     0.14404   0.64909   0.46509   0.00000  Uiso   1.00
I111   I     0.14455   0.63935   0.72903   0.00000  Uiso   1.00
I112   I     0.14123   0.64901   0.96707   0.00000  Uiso   1.00
I113   I     0.14393   0.97286   0.48201   0.00000  Uiso   1.00
I114   I     0.15001   0.97858   0.21450   0.00000  Uiso   1.00
I115   I     0.10669   0.80450   0.10781   0.00000  Uiso   1.00
I116   I     0.11218   0.81935   0.33985   0.00000  Uiso   1.00
I117   I     0.14332   0.97355   0.96552   0.00000  Uiso   1.00
I118   I     0.14253   0.97934   0.71570   0.00000  Uiso   1.00
I119   I     0.10362   0.80545   0.59778   0.00000  Uiso   1.00
I120   I     0.10381   0.81382   0.84684   0.00000  Uiso   1.00
I121   I     0.39594   0.18972   0.21961   0.00000  Uiso   1.00
I122   I     0.35455   0.02675   0.09180   0.00000  Uiso   1.00
I123   I     0.36636   0.02567   0.35121   0.00000  Uiso   1.00
I124   I     0.39529   0.19105   0.47612   0.00000  Uiso   1.00
I125   I     0.35692   0.02515   0.84590   0.00000  Uiso   1.00
I126   I     0.35557   0.02579   0.59358   0.00000  Uiso   1.00
I127   I     0.39392   0.19194   0.97435   0.00000  Uiso   1.00
I128   I     0.38979   0.19355   0.72713   0.00000  Uiso   1.00
I129   I     0.34660   0.35833   0.09979   0.00000  Uiso   1.00
I130   I     0.35122   0.35427   0.34906   0.00000  Uiso   1.00
I131   I     0.35825   0.35486   0.59065   0.00000  Uiso   1.00
I132   I     0.35614   0.35306   0.84636   0.00000  Uiso   1.00
I133   I     0.38868   0.51892   0.22487   0.00000  Uiso   1.00
I134   I     0.39086   0.51828   0.46702   0.00000  Uiso   1.00
I135   I     0.38585   0.52025   0.72569   0.00000  Uiso   1.00
I136   I     0.39518   0.52517   0.97483   0.00000  Uiso   1.00
I137   I     0.35782   0.68577   0.08850   0.00000  Uiso   1.00
I138   I     0.36060   0.68229   0.34968   0.00000  Uiso   1.00
I139   I     0.35098   0.68891   0.59666   0.00000  Uiso   1.00
I140   I     0.36120   0.68993   0.85012   0.00000  Uiso   1.00
I141   I     0.39220   0.85483   0.21794   0.00000  Uiso   1.00
I142   I     0.39672   0.85398   0.46979   0.00000  Uiso   1.00
I143   I     0.39666   0.86064   0.72403   0.00000  Uiso   1.00
I144   I     0.39809   0.86063   0.97389   0.00000  Uiso   1.00
I145   I     0.61374   0.14657   0.10574   0.00000  Uiso   1.00
I146   I     0.60928   0.14836   0.34210   0.00000  Uiso   1.00
I147   I     0.60245   0.14413   0.59694   0.00000  Uiso   1.00
I148   I     0.59801   0.13614   0.85818   0.00000  Uiso   1.00
I149   I     0.64269   0.31038   0.22223   0.00000  Uiso   1.00
I150   I     0.65212   0.30480   0.47618   0.00000  Uiso   1.00
I151   I     0.63692   0.30697   0.72140   0.00000  Uiso   1.00
I152   I     0.63255   0.31672   0.96791   0.00000  Uiso   1.00
I153   I     0.61052   0.47648   0.10243   0.00000  Uiso   1.00
I154   I     0.61102   0.47749   0.34774   0.00000  Uiso   1.00
I155   I     0.60882   0.47956   0.59839   0.00000  Uiso   1.00
I156   I     0.61389   0.48428   0.83730   0.00000  Uiso   1.00
I157   I     0.64081   0.64844   0.21605   0.00000  Uiso   1.00
I158   I     0.64884   0.64491   0.46908   0.00000  Uiso   1.00
I159   I     0.64004   0.65007   0.71848   0.00000  Uiso   1.00
I160   I     0.63911   0.64745   0.97256   0.00000  Uiso   1.00
I161   I     0.60609   0.81358   0.09359   0.00000  Uiso   1.00
I162   I     0.64228   0.97650   0.23018   0.00000  Uiso   1.00
I163   I     0.63736   0.97684   0.47596   0.00000  Uiso   1.00
I164   I     0.60960   0.81178   0.34705   0.00000  Uiso   1.00
I165   I     0.63969   0.97735   0.97590   0.00000  Uiso   1.00
I166   I     0.64453   0.97511   0.72835   0.00000  Uiso   1.00
I167   I     0.60748   0.80989   0.59481   0.00000  Uiso   1.00
I168   I     0.60881   0.81259   0.85181   0.00000  Uiso   1.00
I169   I     0.86127   0.02207   0.09330   0.00000  Uiso   1.00
I170   I     0.88952   0.19143   0.22780   0.00000  Uiso   1.00
I171   I     0.85662   0.02158   0.34743   0.00000  Uiso   1.00
I172   I     0.88691   0.19390   0.48047   0.00000  Uiso   1.00
I173   I     0.89077   0.18552   0.72373   0.00000  Uiso   1.00
I174   I     0.86082   0.02173   0.59405   0.00000  Uiso   1.00
I175   I     0.85851   0.02307   0.84342   0.00000  Uiso   1.00
I176   I     0.89319   0.18965   0.97572   0.00000  Uiso   1.00
I177   I     0.85864   0.35329   0.10080   0.00000  Uiso   1.00
I178   I     0.85307   0.35828   0.35389   0.00000  Uiso   1.00
I179   I     0.85039   0.35672   0.60549   0.00000  Uiso   1.00
I180   I     0.85838   0.35747   0.86014   0.00000  Uiso   1.00
I181   I     0.89437   0.51740   0.22053   0.00000  Uiso   1.00
I182   I     0.90140   0.51819   0.47222   0.00000  Uiso   1.00
I183   I     0.89267   0.51813   0.71594   0.00000  Uiso   1.00
I184   I     0.89692   0.51931   0.98043   0.00000  Uiso   1.00
I185   I     0.84714   0.69150   0.09448   0.00000  Uiso   1.00
I186   I     0.86519   0.68583   0.33363   0.00000  Uiso   1.00
I187   I     0.85555   0.69297   0.60238   0.00000  Uiso   1.00
I188   I     0.85112   0.69302   0.84978   0.00000  Uiso   1.00
I189   I     0.89889   0.86131   0.22584   0.00000  Uiso   1.00
I190   I     0.88852   0.85407   0.46718   0.00000  Uiso   1.00
I191   I     0.89919   0.85646   0.72964   0.00000  Uiso   1.00
I192   I     0.88771   0.85669   0.95968   0.00000  Uiso   1.00
H193   H     0.11486   0.04649   0.15748   0.00000  Uiso   1.00
H194   H     0.18191   0.07791   0.15947   0.00000  Uiso   1.00
H195   H     0.03088   0.03676   0.19685   0.00000  Uiso   1.00
H196   H     0.11658   0.04711   0.40299   0.00000  Uiso   1.00
H197   H     0.18280   0.07087   0.41274   0.00000  Uiso   1.00
H198   H     0.02524   0.04498   0.44754   0.00000  Uiso   1.00
H199   H     0.21392   0.03700   0.24753   0.00000  Uiso   1.00
H200   H     0.21106   0.03668   0.49891   0.00000  Uiso   1.00
H201   H     0.21238   0.03498   0.00188   0.00000  Uiso   1.00
H202   H     0.11520   0.05523   0.65887   0.00000  Uiso   1.00
H203   H     0.18679   0.07346   0.66629   0.00000  Uiso   1.00
H204   H     0.02516   0.04250   0.69640   0.00000  Uiso   1.00
H205   H     0.11950   0.04767   0.90876   0.00000  Uiso   1.00
H206   H     0.18185   0.07286   0.91357   0.00000  Uiso   1.00
H207   H     0.02543   0.04106   0.94550   0.00000  Uiso   1.00
H208   H     0.20989   0.04388   0.74682   0.00000  Uiso   1.00
H209   H     0.21361   0.37693   0.25710   0.00000  Uiso   1.00
H210   H     0.06531   0.24394   0.03758   0.00000  Uiso   1.00
H211   H     0.02772   0.36673   0.20427   0.00000  Uiso   1.00
H212   H     0.07209   0.24596   0.28898   0.00000  Uiso   1.00
H213   H     0.02340   0.36953   0.45085   0.00000  Uiso   1.00
H214   H     0.13664   0.21538   0.03667   0.00000  Uiso   1.00
H215   H     0.10667   0.38370   0.16141   0.00000  Uiso   1.00
H216   H     0.11309   0.38088   0.41041   0.00000  Uiso   1.00
H217   H     0.03684   0.20176   0.13015   0.00000  Uiso   1.00
H218   H     0.13917   0.21305   0.28206   0.00000  Uiso   1.00
H219   H     0.22473   0.20531   0.07525   0.00000  Uiso   1.00
H220   H     0.03726   0.20136   0.38929   0.00000  Uiso   1.00
H221   H     0.21972   0.20292   0.32281   0.00000  Uiso   1.00
H222   H     0.20330   0.37913   0.00127   0.00000  Uiso   1.00
H223   H     0.20737   0.37029   0.75789   0.00000  Uiso   1.00
H224   H     0.07654   0.24572   0.54441   0.00000  Uiso   1.00
H225   H     0.14170   0.21986   0.77702   0.00000  Uiso   1.00
H226   H     0.03250   0.36659   0.70391   0.00000  Uiso   1.00
H227   H     0.14203   0.21565   0.53704   0.00000  Uiso   1.00
H228   H     0.07479   0.24833   0.78726   0.00000  Uiso   1.00
H229   H     0.02057   0.36857   0.95492   0.00000  Uiso   1.00
H230   H     0.10876   0.37956   0.91287   0.00000  Uiso   1.00
H231   H     0.22341   0.20908   0.81910   0.00000  Uiso   1.00
H232   H     0.22161   0.20223   0.57450   0.00000  Uiso   1.00
H233   H     0.11077   0.38642   0.65505   0.00000  Uiso   1.00
H234   H     0.03935   0.20230   0.63150   0.00000  Uiso   1.00
H235   H     0.04359   0.21005   0.87290   0.00000  Uiso   1.00
H236   H     0.21420   0.37018   0.50249   0.00000  Uiso   1.00
H237   H     0.04363   0.54789   0.11910   0.00000  Uiso   1.00
H238   H     0.17797   0.41567   0.41520   0.00000  Uiso   1.00
H239   H     0.13836   0.55432   0.03448   0.00000  Uiso   1.00
H240   H     0.22318   0.54405   0.07563   0.00000  Uiso   1.00
H241   H     0.04337   0.53945   0.37808   0.00000  Uiso   1.00
H242   H     0.13527   0.54760   0.28667   0.00000  Uiso   1.00
H243   H     0.22295   0.54189   0.32498   0.00000  Uiso   1.00
H244   H     0.06741   0.58355   0.28553   0.00000  Uiso   1.00
H245   H     0.07418   0.58886   0.03591   0.00000  Uiso   1.00
H246   H     0.17584   0.41169   0.16929   0.00000  Uiso   1.00
H247   H     0.04174   0.54077   0.62384   0.00000  Uiso   1.00
H248   H     0.14113   0.55691   0.53245   0.00000  Uiso   1.00
H249   H     0.22031   0.53402   0.57832   0.00000  Uiso   1.00
H250   H     0.03401   0.53690   0.88377   0.00000  Uiso   1.00
H251   H     0.12992   0.53808   0.78680   0.00000  Uiso   1.00
H252   H     0.07501   0.59046   0.53131   0.00000  Uiso   1.00
H253   H     0.21542   0.53825   0.82317   0.00000  Uiso   1.00
H254   H     0.06772   0.57412   0.79026   0.00000  Uiso   1.00
H255   H     0.17601   0.40448   0.92156   0.00000  Uiso   1.00
H256   H     0.17650   0.41608   0.66356   0.00000  Uiso   1.00
H257   H     0.11820   0.70974   0.15799   0.00000  Uiso   1.00
H258   H     0.19130   0.73529   0.16403   0.00000  Uiso   1.00
H259   H     0.03115   0.71024   0.19545   0.00000  Uiso   1.00
H260   H     0.10881   0.72235   0.40444   0.00000  Uiso   1.00
H261   H     0.17356   0.75486   0.41291   0.00000  Uiso   1.00
H262   H     0.03162   0.70978   0.44817   0.00000  Uiso   1.00
H263   H     0.21488   0.70238   0.25951   0.00000  Uiso   1.00
H264   H     0.20608   0.71117   0.49377   0.00000  Uiso   1.00
H265   H     0.12373   0.71031   0.66392   0.00000  Uiso   1.00
H266   H     0.18768   0.74834   0.66015   0.00000  Uiso   1.00
H267   H     0.02784   0.71143   0.69448   0.00000  Uiso   1.00
H268   H     0.11544   0.71587   0.90688   0.00000  Uiso   1.00
H269   H     0.18136   0.74916   0.90860   0.00000  Uiso   1.00
H270   H     0.03428   0.70414   0.94793   0.00000  Uiso   1.00
H271   H     0.21270   0.71112   0.74848   0.00000  Uiso   1.00
H272   H     0.20678   0.71292   0.99257   0.00000  Uiso   1.00
H273   H     0.03898   0.86703   0.13190   0.00000  Uiso   1.00
H274   H     0.13401   0.87623   0.03659   0.00000  Uiso   1.00
H275   H     0.06443   0.90435   0.03828   0.00000  Uiso   1.00
H276   H     0.22112   0.87565   0.06947   0.00000  Uiso   1.00
H277   H     0.04685   0.88081   0.37019   0.00000  Uiso   1.00
H278   H     0.14576   0.89273   0.27600   0.00000  Uiso   1.00
H279   H     0.07665   0.92278   0.28473   0.00000  Uiso   1.00
H280   H     0.22699   0.87706   0.32376   0.00000  Uiso   1.00
H281   H     0.03830   0.87169   0.62280   0.00000  Uiso   1.00
H282   H     0.13552   0.87577   0.53390   0.00000  Uiso   1.00
H283   H     0.07129   0.90945   0.53748   0.00000  Uiso   1.00
H284   H     0.22653   0.87652   0.57418   0.00000  Uiso   1.00
H285   H     0.04747   0.88003   0.86593   0.00000  Uiso   1.00
H286   H     0.14215   0.88418   0.77839   0.00000  Uiso   1.00
H287   H     0.07028   0.91350   0.78162   0.00000  Uiso   1.00
H288   H     0.22502   0.87529   0.82001   0.00000  Uiso   1.00
H289   H     0.35774   0.11088   0.15281   0.00000  Uiso   1.00
H290   H     0.42968   0.09077   0.16207   0.00000  Uiso   1.00
H291   H     0.27316   0.11995   0.19668   0.00000  Uiso   1.00
H292   H     0.45790   0.12512   0.24781   0.00000  Uiso   1.00
H293   H     0.36452   0.11807   0.40556   0.00000  Uiso   1.00
H294   H     0.43325   0.09207   0.41308   0.00000  Uiso   1.00
H295   H     0.27953   0.12604   0.44948   0.00000  Uiso   1.00
H296   H     0.46182   0.13308   0.00266   0.00000  Uiso   1.00
H297   H     0.35967   0.11225   0.65584   0.00000  Uiso   1.00
H298   H     0.42766   0.07980   0.66399   0.00000  Uiso   1.00
H299   H     0.27856   0.12647   0.70116   0.00000  Uiso   1.00
H300   H     0.45834   0.12827   0.75404   0.00000  Uiso   1.00
H301   H     0.36024   0.11577   0.90613   0.00000  Uiso   1.00
H302   H     0.42821   0.08860   0.91213   0.00000  Uiso   1.00
H303   H     0.27787   0.12748   0.94897   0.00000  Uiso   1.00
H304   H     0.46217   0.12822   0.50300   0.00000  Uiso   1.00
H305   H     0.38274   0.28620   0.03581   0.00000  Uiso   1.00
H306   H     0.31800   0.25389   0.04078   0.00000  Uiso   1.00
H307   H     0.46774   0.29359   0.07570   0.00000  Uiso   1.00
H308   H     0.29225   0.28969   0.12438   0.00000  Uiso   1.00
H309   H     0.38915   0.28018   0.27746   0.00000  Uiso   1.00
H310   H     0.32602   0.24782   0.28515   0.00000  Uiso   1.00
H311   H     0.46865   0.29746   0.32472   0.00000  Uiso   1.00
H312   H     0.28264   0.29092   0.37942   0.00000  Uiso   1.00
H313   H     0.38927   0.28095   0.53106   0.00000  Uiso   1.00
H314   H     0.32226   0.24973   0.53414   0.00000  Uiso   1.00
H315   H     0.47152   0.29003   0.57055   0.00000  Uiso   1.00
H316   H     0.28591   0.29157   0.61769   0.00000  Uiso   1.00
H317   H     0.37927   0.28739   0.77893   0.00000  Uiso   1.00
H318   H     0.31188   0.25967   0.78300   0.00000  Uiso   1.00
H319   H     0.46911   0.28954   0.82404   0.00000  Uiso   1.00
H320   H     0.29244   0.28756   0.87208   0.00000  Uiso   1.00
H321   H     0.42392   0.41798   0.16467   0.00000  Uiso   1.00
H322   H     0.42407   0.40574   0.40310   0.00000  Uiso   1.00
H323   H     0.35739   0.44764   0.15392   0.00000  Uiso   1.00
H324   H     0.27473   0.46313   0.19966   0.00000  Uiso   1.00
H325   H     0.45717   0.46014   0.25032   0.00000  Uiso   1.00
H326   H     0.35564   0.43891   0.40195   0.00000  Uiso   1.00
H327   H     0.27866   0.46202   0.44894   0.00000  Uiso   1.00
H328   H     0.31975   0.57727   0.03293   0.00000  Uiso   1.00
H329   H     0.31563   0.59442   0.28786   0.00000  Uiso   1.00
H330   H     0.31786   0.58765   0.78862   0.00000  Uiso   1.00
H331   H     0.36342   0.44794   0.66037   0.00000  Uiso   1.00
H332   H     0.42709   0.41547   0.65906   0.00000  Uiso   1.00
H333   H     0.27217   0.45158   0.70499   0.00000  Uiso   1.00
H334   H     0.44754   0.44647   0.74439   0.00000  Uiso   1.00
H335   H     0.32576   0.58607   0.54247   0.00000  Uiso   1.00
H336   H     0.36122   0.45025   0.91169   0.00000  Uiso   1.00
H337   H     0.27767   0.46262   0.95217   0.00000  Uiso   1.00
H338   H     0.43108   0.42100   0.91788   0.00000  Uiso   1.00
H339   H     0.45312   0.45585   0.50002   0.00000  Uiso   1.00
H340   H     0.45671   0.46117   0.99957   0.00000  Uiso   1.00
H341   H     0.38667   0.61359   0.03775   0.00000  Uiso   1.00
H342   H     0.28946   0.62694   0.38552   0.00000  Uiso   1.00
H343   H     0.47936   0.62207   0.07029   0.00000  Uiso   1.00
H344   H     0.42990   0.74740   0.15935   0.00000  Uiso   1.00
H345   H     0.28222   0.79660   0.19755   0.00000  Uiso   1.00
H346   H     0.47356   0.62690   0.32341   0.00000  Uiso   1.00
H347   H     0.28108   0.79651   0.44292   0.00000  Uiso   1.00
H348   H     0.43308   0.75191   0.40099   0.00000  Uiso   1.00
H349   H     0.45539   0.78888   0.49198   0.00000  Uiso   1.00
H350   H     0.28964   0.62447   0.12159   0.00000  Uiso   1.00
H351   H     0.36818   0.78823   0.40635   0.00000  Uiso   1.00
H352   H     0.38337   0.61801   0.27943   0.00000  Uiso   1.00
H353   H     0.45490   0.78522   0.23707   0.00000  Uiso   1.00
H354   H     0.36114   0.77920   0.15927   0.00000  Uiso   1.00
H355   H     0.46169   0.79353   0.00343   0.00000  Uiso   1.00
H356   H     0.47201   0.62603   0.57255   0.00000  Uiso   1.00
H357   H     0.42505   0.75197   0.65614   0.00000  Uiso   1.00
H358   H     0.46538   0.62691   0.82274   0.00000  Uiso   1.00
H359   H     0.42618   0.75205   0.90943   0.00000  Uiso   1.00
H360   H     0.39310   0.61610   0.53405   0.00000  Uiso   1.00
H361   H     0.38665   0.61501   0.78044   0.00000  Uiso   1.00
H362   H     0.36361   0.78721   0.66049   0.00000  Uiso   1.00
H363   H     0.28636   0.62553   0.62169   0.00000  Uiso   1.00
H364   H     0.29622   0.61958   0.86996   0.00000  Uiso   1.00
H365   H     0.36036   0.78300   0.90376   0.00000  Uiso   1.00
H366   H     0.45702   0.78898   0.74544   0.00000  Uiso   1.00
H367   H     0.28194   0.79546   0.69579   0.00000  Uiso   1.00
H368   H     0.38691   0.94823   0.02857   0.00000  Uiso   1.00
H369   H     0.32012   0.91995   0.03186   0.00000  Uiso   1.00
H370   H     0.46928   0.96437   0.07415   0.00000  Uiso   1.00
H371   H     0.29624   0.95495   0.11893   0.00000  Uiso   1.00
H372   H     0.39065   0.95171   0.28140   0.00000  Uiso   1.00
H373   H     0.32346   0.92067   0.28480   0.00000  Uiso   1.00
H374   H     0.47289   0.96658   0.32300   0.00000  Uiso   1.00
H375   H     0.29727   0.96102   0.37396   0.00000  Uiso   1.00
H376   H     0.39130   0.94963   0.53497   0.00000  Uiso   1.00
H377   H     0.32013   0.92488   0.53825   0.00000  Uiso   1.00
H378   H     0.47292   0.96004   0.57428   0.00000  Uiso   1.00
H379   H     0.28561   0.96795   0.62874   0.00000  Uiso   1.00
H380   H     0.39049   0.95406   0.77529   0.00000  Uiso   1.00
H381   H     0.32358   0.91793   0.78185   0.00000  Uiso   1.00
H382   H     0.47345   0.96182   0.82291   0.00000  Uiso   1.00
H383   H     0.29048   0.96453   0.87522   0.00000  Uiso   1.00
H384   H     0.28232   0.80028   0.94653   0.00000  Uiso   1.00
H385   H     0.60985   0.04787   0.15873   0.00000  Uiso   1.00
H386   H     0.67900   0.07884   0.16779   0.00000  Uiso   1.00
H387   H     0.53082   0.04100   0.19520   0.00000  Uiso   1.00
H388   H     0.61052   0.05513   0.40910   0.00000  Uiso   1.00
H389   H     0.68078   0.08185   0.41634   0.00000  Uiso   1.00
H390   H     0.52933   0.04049   0.44804   0.00000  Uiso   1.00
H391   H     0.71335   0.03335   0.25809   0.00000  Uiso   1.00
H392   H     0.71246   0.03784   0.00920   0.00000  Uiso   1.00
H393   H     0.70141   0.04572   0.49927   0.00000  Uiso   1.00
H394   H     0.61452   0.04675   0.66152   0.00000  Uiso   1.00
H395   H     0.68090   0.07386   0.67079   0.00000  Uiso   1.00
H396   H     0.52623   0.04230   0.70151   0.00000  Uiso   1.00
H397   H     0.61675   0.04859   0.91342   0.00000  Uiso   1.00
H398   H     0.68406   0.07607   0.91769   0.00000  Uiso   1.00
H399   H     0.52611   0.04045   0.95162   0.00000  Uiso   1.00
H400   H     0.71075   0.04308   0.75201   0.00000  Uiso   1.00
H401   H     0.53313   0.19540   0.88317   0.00000  Uiso   1.00
H402   H     0.63966   0.22734   0.28336   0.00000  Uiso   1.00
H403   H     0.70833   0.37524   0.24938   0.00000  Uiso   1.00
H404   H     0.63680   0.21842   0.03287   0.00000  Uiso   1.00
H405   H     0.61425   0.37812   0.16114   0.00000  Uiso   1.00
H406   H     0.57157   0.25105   0.03823   0.00000  Uiso   1.00
H407   H     0.52912   0.37340   0.19742   0.00000  Uiso   1.00
H408   H     0.54223   0.20967   0.36864   0.00000  Uiso   1.00
H409   H     0.56887   0.25266   0.28923   0.00000  Uiso   1.00
H410   H     0.52374   0.37440   0.44712   0.00000  Uiso   1.00
H411   H     0.54237   0.20883   0.12658   0.00000  Uiso   1.00
H412   H     0.61144   0.37565   0.40993   0.00000  Uiso   1.00
H413   H     0.72546   0.20889   0.32742   0.00000  Uiso   1.00
H414   H     0.72470   0.20496   0.07717   0.00000  Uiso   1.00
H415   H     0.62591   0.20663   0.78977   0.00000  Uiso   1.00
H416   H     0.71930   0.20695   0.58272   0.00000  Uiso   1.00
H417   H     0.56988   0.24654   0.53541   0.00000  Uiso   1.00
H418   H     0.63240   0.21572   0.53342   0.00000  Uiso   1.00
H419   H     0.52137   0.37062   0.70128   0.00000  Uiso   1.00
H420   H     0.71860   0.20426   0.83055   0.00000  Uiso   1.00
H421   H     0.53971   0.20282   0.62147   0.00000  Uiso   1.00
H422   H     0.56394   0.24102   0.79153   0.00000  Uiso   1.00
H423   H     0.52724   0.36739   0.94746   0.00000  Uiso   1.00
H424   H     0.60447   0.38200   0.89967   0.00000  Uiso   1.00
H425   H     0.70357   0.37682   0.74375   0.00000  Uiso   1.00
H426   H     0.61170   0.37538   0.65850   0.00000  Uiso   1.00
H427   H     0.70805   0.37521   0.50145   0.00000  Uiso   1.00
H428   H     0.70747   0.37557   0.99721   0.00000  Uiso   1.00
H429   H     0.54485   0.53844   0.12258   0.00000  Uiso   1.00
H430   H     0.63839   0.54934   0.03168   0.00000  Uiso   1.00
H431   H     0.72529   0.53690   0.07720   0.00000  Uiso   1.00
H432   H     0.54483   0.54125   0.37165   0.00000  Uiso   1.00
H433   H     0.57264   0.58150   0.03484   0.00000  Uiso   1.00
H434   H     0.64183   0.54803   0.28359   0.00000  Uiso   1.00
H435   H     0.72980   0.53859   0.32552   0.00000  Uiso   1.00
H436   H     0.57627   0.58409   0.28266   0.00000  Uiso   1.00
H437   H     0.67635   0.40683   0.41807   0.00000  Uiso   1.00
H438   H     0.67832   0.41142   0.16008   0.00000  Uiso   1.00
H439   H     0.53788   0.53923   0.62790   0.00000  Uiso   1.00
H440   H     0.67286   0.41597   0.66064   0.00000  Uiso   1.00
H441   H     0.64261   0.55608   0.52769   0.00000  Uiso   1.00
H442   H     0.72784   0.54583   0.57327   0.00000  Uiso   1.00
H443   H     0.54628   0.54608   0.87396   0.00000  Uiso   1.00
H444   H     0.64410   0.56303   0.77322   0.00000  Uiso   1.00
H445   H     0.57403   0.58051   0.53113   0.00000  Uiso   1.00
H446   H     0.72077   0.53750   0.82126   0.00000  Uiso   1.00
H447   H     0.57879   0.59532   0.77634   0.00000  Uiso   1.00
H448   H     0.67091   0.42144   0.90375   0.00000  Uiso   1.00
H449   H     0.60968   0.72201   0.15557   0.00000  Uiso   1.00
H450   H     0.67375   0.75269   0.15927   0.00000  Uiso   1.00
H451   H     0.52380   0.70490   0.19597   0.00000  Uiso   1.00
H452   H     0.61192   0.71879   0.40360   0.00000  Uiso   1.00
H453   H     0.67960   0.75122   0.40571   0.00000  Uiso   1.00
H454   H     0.53063   0.70319   0.44763   0.00000  Uiso   1.00
H455   H     0.70771   0.71000   0.24435   0.00000  Uiso   1.00
H456   H     0.70634   0.71114   0.00128   0.00000  Uiso   1.00
H457   H     0.60948   0.71768   0.65674   0.00000  Uiso   1.00
H458   H     0.68070   0.74736   0.65822   0.00000  Uiso   1.00
H459   H     0.52149   0.70779   0.70052   0.00000  Uiso   1.00
H460   H     0.61226   0.71646   0.90788   0.00000  Uiso   1.00
H461   H     0.68173   0.74667   0.91222   0.00000  Uiso   1.00
H462   H     0.52469   0.70618   0.95116   0.00000  Uiso   1.00
H463   H     0.70497   0.71015   0.74198   0.00000  Uiso   1.00
H464   H     0.71015   0.70144   0.50156   0.00000  Uiso   1.00
H465   H     0.54548   0.88286   0.11875   0.00000  Uiso   1.00
H466   H     0.63948   0.88726   0.03173   0.00000  Uiso   1.00
H467   H     0.56925   0.91252   0.04250   0.00000  Uiso   1.00
H468   H     0.72188   0.87648   0.07215   0.00000  Uiso   1.00
H469   H     0.54194   0.87241   0.38096   0.00000  Uiso   1.00
H470   H     0.63704   0.88176   0.28239   0.00000  Uiso   1.00
H471   H     0.57557   0.91538   0.28539   0.00000  Uiso   1.00
H472   H     0.72766   0.87398   0.32336   0.00000  Uiso   1.00
H473   H     0.53845   0.87249   0.62125   0.00000  Uiso   1.00
H474   H     0.64396   0.88540   0.53301   0.00000  Uiso   1.00
H475   H     0.57517   0.91744   0.53675   0.00000  Uiso   1.00
H476   H     0.72589   0.87315   0.57164   0.00000  Uiso   1.00
H477   H     0.54327   0.87914   0.87217   0.00000  Uiso   1.00
H478   H     0.63476   0.88512   0.78135   0.00000  Uiso   1.00
H479   H     0.57605   0.91824   0.78312   0.00000  Uiso   1.00
H480   H     0.72350   0.87738   0.82703   0.00000  Uiso   1.00
H481   H     0.86341   0.11527   0.15766   0.00000  Uiso   1.00
H482   H     0.93095   0.08808   0.16191   0.00000  Uiso   1.00
H483   H     0.77383   0.12537   0.20289   0.00000  Uiso   1.00
H484   H     0.95664   0.13039   0.25154   0.00000  Uiso   1.00
H485   H     0.86575   0.11994   0.41355   0.00000  Uiso   1.00
H486   H     0.93301   0.08403   0.41203   0.00000  Uiso   1.00
H487   H     0.77348   0.12943   0.45211   0.00000  Uiso   1.00
H488   H     0.95618   0.13224   0.49811   0.00000  Uiso   1.00
H489   H     0.85728   0.11636   0.65778   0.00000  Uiso   1.00
H490   H     0.92568   0.08476   0.66201   0.00000  Uiso   1.00
H491   H     0.77827   0.12777   0.70604   0.00000  Uiso   1.00
H492   H     0.94717   0.11787   0.74414   0.00000  Uiso   1.00
H493   H     0.85938   0.11613   0.91000   0.00000  Uiso   1.00
H494   H     0.93097   0.08669   0.91028   0.00000  Uiso   1.00
H495   H     0.77733   0.12634   0.95246   0.00000  Uiso   1.00
H496   H     0.94880   0.12079   0.98662   0.00000  Uiso   1.00
H497   H     0.88644   0.27977   0.03730   0.00000  Uiso   1.00
H498   H     0.81692   0.25272   0.04775   0.00000  Uiso   1.00
H499   H     0.96987   0.28896   0.08263   0.00000  Uiso   1.00
H500   H     0.78746   0.28979   0.12972   0.00000  Uiso   1.00
H501   H     0.88093   0.28861   0.28745   0.00000  Uiso   1.00
H502   H     0.81224   0.26659   0.29479   0.00000  Uiso   1.00
H503   H     0.97569   0.28742   0.33100   0.00000  Uiso   1.00
H504   H     0.78698   0.29372   0.37932   0.00000  Uiso   1.00
H505   H     0.88150   0.29199   0.53849   0.00000  Uiso   1.00
H506   H     0.81048   0.25736   0.54542   0.00000  Uiso   1.00
H507   H     0.97048   0.29097   0.57927   0.00000  Uiso   1.00
H508   H     0.78577   0.29779   0.63526   0.00000  Uiso   1.00
H509   H     0.88551   0.28683   0.79230   0.00000  Uiso   1.00
H510   H     0.81948   0.25050   0.79349   0.00000  Uiso   1.00
H511   H     0.97590   0.28607   0.82771   0.00000  Uiso   1.00
H512   H     0.79531   0.29164   0.87711   0.00000  Uiso   1.00
H513   H     0.86116   0.44316   0.15612   0.00000  Uiso   1.00
H514   H     0.77462   0.45413   0.20261   0.00000  Uiso   1.00
H515   H     0.96377   0.45666   0.25013   0.00000  Uiso   1.00
H516   H     0.93773   0.42270   0.41472   0.00000  Uiso   1.00
H517   H     0.86947   0.44869   0.41255   0.00000  Uiso   1.00
H518   H     0.78514   0.46242   0.44726   0.00000  Uiso   1.00
H519   H     0.93200   0.41789   0.17156   0.00000  Uiso   1.00
H520   H     0.82476   0.58531   0.28611   0.00000  Uiso   1.00
H521   H     0.82838   0.57759   0.03571   0.00000  Uiso   1.00
H522   H     0.96593   0.46221   0.01417   0.00000  Uiso   1.00
H523   H     0.82587   0.58455   0.53419   0.00000  Uiso   1.00
H524   H     0.86079   0.44621   0.65617   0.00000  Uiso   1.00
H525   H     0.77594   0.45953   0.69987   0.00000  Uiso   1.00
H526   H     0.95733   0.45332   0.74272   0.00000  Uiso   1.00
H527   H     0.86574   0.45675   0.90690   0.00000  Uiso   1.00
H528   H     0.92587   0.41510   0.66501   0.00000  Uiso   1.00
H529   H     0.77542   0.45457   0.95027   0.00000  Uiso   1.00
H530   H     0.93295   0.42528   0.91339   0.00000  Uiso   1.00
H531   H     0.83205   0.58419   0.77969   0.00000  Uiso   1.00
H532   H     0.96616   0.45859   0.51145   0.00000  Uiso   1.00
H533   H     0.78121   0.79967   0.19481   0.00000  Uiso   1.00
H534   H     0.97053   0.63388   0.07469   0.00000  Uiso   1.00
H535   H     0.86501   0.79404   0.15818   0.00000  Uiso   1.00
H536   H     0.92716   0.75808   0.16023   0.00000  Uiso   1.00
H537   H     0.79120   0.62664   0.37187   0.00000  Uiso   1.00
H538   H     0.97412   0.63035   0.32310   0.00000  Uiso   1.00
H539   H     0.77784   0.79370   0.44711   0.00000  Uiso   1.00
H540   H     0.92830   0.75527   0.40871   0.00000  Uiso   1.00
H541   H     0.95925   0.79306   0.49754   0.00000  Uiso   1.00
H542   H     0.79260   0.62073   0.12350   0.00000  Uiso   1.00
H543   H     0.89214   0.61486   0.28092   0.00000  Uiso   1.00
H544   H     0.89132   0.61387   0.02955   0.00000  Uiso   1.00
H545   H     0.86016   0.78100   0.39612   0.00000  Uiso   1.00
H546   H     0.96140   0.79648   0.24674   0.00000  Uiso   1.00
H547   H     0.78989   0.62647   0.62620   0.00000  Uiso   1.00
H548   H     0.97995   0.62580   0.56989   0.00000  Uiso   1.00
H549   H     0.85857   0.77913   0.90719   0.00000  Uiso   1.00
H550   H     0.93831   0.76423   0.66247   0.00000  Uiso   1.00
H551   H     0.96245   0.79025   0.75157   0.00000  Uiso   1.00
H552   H     0.97645   0.62700   0.82469   0.00000  Uiso   1.00
H553   H     0.89344   0.62197   0.53150   0.00000  Uiso   1.00
H554   H     0.92702   0.74645   0.90776   0.00000  Uiso   1.00
H555   H     0.78113   0.63484   0.89059   0.00000  Uiso   1.00
H556   H     0.89287   0.62209   0.78644   0.00000  Uiso   1.00
H557   H     0.77459   0.79532   0.94349   0.00000  Uiso   1.00
H558   H     0.76914   0.79260   0.69881   0.00000  Uiso   1.00
H559   H     0.95698   0.79405   0.99701   0.00000  Uiso   1.00
H560   H     0.86684   0.78713   0.65600   0.00000  Uiso   1.00
H561   H     0.89017   0.94703   0.02827   0.00000  Uiso   1.00
H562   H     0.82394   0.91928   0.03109   0.00000  Uiso   1.00
H563   H     0.97243   0.96050   0.07060   0.00000  Uiso   1.00
H564   H     0.78899   0.96279   0.12936   0.00000  Uiso   1.00
H565   H     0.88845   0.95227   0.28137   0.00000  Uiso   1.00
H566   H     0.82125   0.91958   0.28811   0.00000  Uiso   1.00
H567   H     0.97114   0.96269   0.31963   0.00000  Uiso   1.00
H568   H     0.78837   0.95974   0.37911   0.00000  Uiso   1.00
H569   H     0.89236   0.94655   0.53149   0.00000  Uiso   1.00
H570   H     0.82835   0.91936   0.53744   0.00000  Uiso   1.00
H571   H     0.97993   0.96176   0.56767   0.00000  Uiso   1.00
H572   H     0.78703   0.96241   0.62379   0.00000  Uiso   1.00
H573   H     0.89074   0.94362   0.77835   0.00000  Uiso   1.00
H574   H     0.82626   0.91554   0.78198   0.00000  Uiso   1.00
H575   H     0.97542   0.95694   0.82156   0.00000  Uiso   1.00
H576   H     0.79169   0.96313   0.86809   0.00000  Uiso   1.00
C577   C     0.17325   0.17589   0.20015   0.00000  Uiso   1.00
C578   C     0.12845   0.18588   0.20581   0.00000  Uiso   1.00
C579   C     0.09820   0.18008   0.16386   0.00000  Uiso   1.00
C580   C     0.17409   0.17820   0.45201   0.00000  Uiso   1.00
C581   C     0.13576   0.04311   0.12198   0.00000  Uiso   1.00
C582   C     0.17475   0.06040   0.12353   0.00000  Uiso   1.00
C583   C     0.14992   0.01924   0.02793   0.00000  Uiso   1.00
C584   C     0.18839   0.04047   0.03124   0.00000  Uiso   1.00
C585   C     0.07759   0.01118   0.07029   0.00000  Uiso   1.00
C586   C     0.12190   0.02176   0.07201   0.00000  Uiso   1.00
C587   C     0.22919   0.09452   0.07487   0.00000  Uiso   1.00
C588   C     0.19931   0.06317   0.07608   0.00000  Uiso   1.00
C589   C     0.13848   0.03971   0.36969   0.00000  Uiso   1.00
C590   C     0.17603   0.05780   0.37274   0.00000  Uiso   1.00
C591   C     0.15324   0.01952   0.27693   0.00000  Uiso   1.00
C592   C     0.19255   0.03884   0.27988   0.00000  Uiso   1.00
C593   C     0.07925   0.00983   0.31883   0.00000  Uiso   1.00
C594   C     0.12439   0.02155   0.32037   0.00000  Uiso   1.00
C595   C     0.22806   0.09741   0.32374   0.00000  Uiso   1.00
C596   C     0.20129   0.06153   0.32585   0.00000  Uiso   1.00
C597   C     0.12961   0.18816   0.45569   0.00000  Uiso   1.00
C598   C     0.09697   0.18239   0.41688   0.00000  Uiso   1.00
C599   C     0.07895   0.01583   0.82317   0.00000  Uiso   1.00
C600   C     0.17341   0.17768   0.69967   0.00000  Uiso   1.00
C601   C     0.09863   0.18381   0.91139   0.00000  Uiso   1.00
C602   C     0.09712   0.18310   0.66031   0.00000  Uiso   1.00
C603   C     0.13626   0.04798   0.62373   0.00000  Uiso   1.00
C604   C     0.17746   0.06064   0.62835   0.00000  Uiso   1.00
C605   C     0.15209   0.02017   0.53529   0.00000  Uiso   1.00
C606   C     0.18956   0.04050   0.53439   0.00000  Uiso   1.00
C607   C     0.07699   0.01935   0.57063   0.00000  Uiso   1.00
C608   C     0.12173   0.03005   0.57353   0.00000  Uiso   1.00
C609   C     0.23143   0.09554   0.57822   0.00000  Uiso   1.00
C610   C     0.20114   0.06358   0.57884   0.00000  Uiso   1.00
C611   C     0.13937   0.04039   0.87305   0.00000  Uiso   1.00
C612   C     0.17838   0.05744   0.87586   0.00000  Uiso   1.00
C613   C     0.15396   0.02204   0.77943   0.00000  Uiso   1.00
C614   C     0.19272   0.04162   0.78318   0.00000  Uiso   1.00
C615   C     0.12517   0.02540   0.82337   0.00000  Uiso   1.00
C616   C     0.22817   0.09726   0.82562   0.00000  Uiso   1.00
C617   C     0.20273   0.06301   0.82898   0.00000  Uiso   1.00
C618   C     0.17427   0.18156   0.95113   0.00000  Uiso   1.00
C619   C     0.12850   0.18954   0.95497   0.00000  Uiso   1.00
C620   C     0.12840   0.19054   0.70168   0.00000  Uiso   1.00
C621   C     0.18859   0.37649   0.28564   0.00000  Uiso   1.00
C622   C     0.11494   0.20989   0.00158   0.00000  Uiso   1.00
C623   C     0.16830   0.39725   0.12874   0.00000  Uiso   1.00
C624   C     0.15147   0.35369   0.28722   0.00000  Uiso   1.00
C625   C     0.07524   0.22643   0.00377   0.00000  Uiso   1.00
C626   C     0.13343   0.37844   0.37514   0.00000  Uiso   1.00
C627   C     0.05888   0.20097   0.16522   0.00000  Uiso   1.00
C628   C     0.02328   0.25952   0.20656   0.00000  Uiso   1.00
C629   C     0.05060   0.22622   0.21030   0.00000  Uiso   1.00
C630   C     0.07814   0.22595   0.25582   0.00000  Uiso   1.00
C631   C     0.07507   0.34081   0.07701   0.00000  Uiso   1.00
C632   C     0.11768   0.35729   0.07969   0.00000  Uiso   1.00
C633   C     0.14810   0.35269   0.03721   0.00000  Uiso   1.00
C634   C     0.12868   0.37930   0.12658   0.00000  Uiso   1.00
C635   C     0.01908   0.26088   0.45787   0.00000  Uiso   1.00
C636   C     0.05087   0.22683   0.46515   0.00000  Uiso   1.00
C637   C     0.05898   0.20198   0.42075   0.00000  Uiso   1.00
C638   C     0.18367   0.37833   0.03649   0.00000  Uiso   1.00
C639   C     0.07552   0.34123   0.32947   0.00000  Uiso   1.00
C640   C     0.12104   0.35727   0.32913   0.00000  Uiso   1.00
C641   C     0.11654   0.20725   0.25067   0.00000  Uiso   1.00
C642   C     0.17151   0.39927   0.37858   0.00000  Uiso   1.00
C643   C     0.08131   0.22805   0.50918   0.00000  Uiso   1.00
C644   C     0.06290   0.20770   0.90958   0.00000  Uiso   1.00
C645   C     0.19814   0.39296   0.83894   0.00000  Uiso   1.00
C646   C     0.14868   0.35093   0.79306   0.00000  Uiso   1.00
C647   C     0.17140   0.39812   0.62715   0.00000  Uiso   1.00
C648   C     0.13150   0.37406   0.88130   0.00000  Uiso   1.00
C649   C     0.18671   0.37318   0.79289   0.00000  Uiso   1.00
C650   C     0.02020   0.26181   0.70399   0.00000  Uiso   1.00
C651   C     0.05147   0.23032   0.70617   0.00000  Uiso   1.00
C652   C     0.18836   0.37394   0.53487   0.00000  Uiso   1.00
C653   C     0.07899   0.23040   0.75089   0.00000  Uiso   1.00
C654   C     0.07510   0.34134   0.57601   0.00000  Uiso   1.00
C655   C     0.12074   0.35692   0.57810   0.00000  Uiso   1.00
C656   C     0.15059   0.35176   0.53541   0.00000  Uiso   1.00
C657   C     0.01879   0.25971   0.95459   0.00000  Uiso   1.00
C658   C     0.05133   0.23006   0.95583   0.00000  Uiso   1.00
C659   C     0.11869   0.21317   0.74646   0.00000  Uiso   1.00
C660   C     0.13265   0.37880   0.62379   0.00000  Uiso   1.00
C661   C     0.07283   0.34154   0.83317   0.00000  Uiso   1.00
C662   C     0.11795   0.35574   0.83435   0.00000  Uiso   1.00
C663   C     0.17098   0.38849   0.88603   0.00000  Uiso   1.00
C664   C     0.06042   0.20564   0.66291   0.00000  Uiso   1.00
C665   C     0.19811   0.39654   0.58082   0.00000  Uiso   1.00
C666   C     0.12010   0.21100   0.50329   0.00000  Uiso   1.00
C667   C     0.22663   0.43275   0.32548   0.00000  Uiso   1.00
C668   C     0.09884   0.52240   0.15823   0.00000  Uiso   1.00
C669   C     0.06184   0.54699   0.15705   0.00000  Uiso   1.00
C670   C     0.17370   0.51558   0.19871   0.00000  Uiso   1.00
C671   C     0.12782   0.52676   0.20272   0.00000  Uiso   1.00
C672   C     0.05089   0.56812   0.20420   0.00000  Uiso   1.00
C673   C     0.11534   0.54588   0.24963   0.00000  Uiso   1.00
C674   C     0.07606   0.56420   0.25137   0.00000  Uiso   1.00
C675   C     0.22251   0.43535   0.07846   0.00000  Uiso   1.00
C676   C     0.10248   0.52209   0.41281   0.00000  Uiso   1.00
C677   C     0.06626   0.54486   0.41025   0.00000  Uiso   1.00
C678   C     0.17359   0.51195   0.45416   0.00000  Uiso   1.00
C679   C     0.12966   0.52546   0.45542   0.00000  Uiso   1.00
C680   C     0.05471   0.57010   0.45064   0.00000  Uiso   1.00
C681   C     0.11754   0.55044   0.00085   0.00000  Uiso   1.00
C682   C     0.07906   0.56742   0.00338   0.00000  Uiso   1.00
C683   C     0.19254   0.40219   0.08072   0.00000  Uiso   1.00
C684   C     0.19721   0.40029   0.33096   0.00000  Uiso   1.00
C685   C     0.08182   0.57153   0.49696   0.00000  Uiso   1.00
C686   C     0.11986   0.55083   0.49689   0.00000  Uiso   1.00
C687   C     0.09789   0.51625   0.65711   0.00000  Uiso   1.00
C688   C     0.06063   0.53949   0.65711   0.00000  Uiso   1.00
C689   C     0.17274   0.50985   0.70160   0.00000  Uiso   1.00
C690   C     0.12666   0.51956   0.70198   0.00000  Uiso   1.00
C691   C     0.05187   0.56411   0.70234   0.00000  Uiso   1.00
C692   C     0.11135   0.53649   0.75005   0.00000  Uiso   1.00
C693   C     0.07347   0.55657   0.75295   0.00000  Uiso   1.00
C694   C     0.23066   0.42828   0.57644   0.00000  Uiso   1.00
C695   C     0.09520   0.51715   0.91735   0.00000  Uiso   1.00
C696   C     0.05742   0.53862   0.91663   0.00000  Uiso   1.00
C697   C     0.22346   0.43011   0.83550   0.00000  Uiso   1.00
C698   C     0.17036   0.51273   0.95424   0.00000  Uiso   1.00
C699   C     0.12727   0.52588   0.95757   0.00000  Uiso   1.00
C700   C     0.05175   0.56768   0.95854   0.00000  Uiso   1.00
C701   C     0.02332   0.59915   0.69945   0.00000  Uiso   1.00
C702   C     0.13866   0.70957   0.12477   0.00000  Uiso   1.00
C703   C     0.17908   0.72368   0.12650   0.00000  Uiso   1.00
C704   C     0.15211   0.68860   0.03172   0.00000  Uiso   1.00
C705   C     0.18976   0.71035   0.03133   0.00000  Uiso   1.00
C706   C     0.07841   0.68367   0.07214   0.00000  Uiso   1.00
C707   C     0.12341   0.69294   0.07514   0.00000  Uiso   1.00
C708   C     0.22726   0.76778   0.07533   0.00000  Uiso   1.00
C709   C     0.20125   0.73149   0.08017   0.00000  Uiso   1.00
C710   C     0.13306   0.71831   0.37221   0.00000  Uiso   1.00
C711   C     0.17023   0.73611   0.37679   0.00000  Uiso   1.00
C712   C     0.15308   0.68918   0.28669   0.00000  Uiso   1.00
C713   C     0.19091   0.70821   0.28973   0.00000  Uiso   1.00
C714   C     0.07719   0.68345   0.32252   0.00000  Uiso   1.00
C715   C     0.12093   0.69848   0.32386   0.00000  Uiso   1.00
C716   C     0.22617   0.76685   0.32424   0.00000  Uiso   1.00
C717   C     0.19893   0.73363   0.33320   0.00000  Uiso   1.00
C718   C     0.02244   0.60113   0.44819   0.00000  Uiso   1.00
C719   C     0.02425   0.60293   0.19951   0.00000  Uiso   1.00
C720   C     0.14245   0.70806   0.62652   0.00000  Uiso   1.00
C721   C     0.17856   0.72931   0.62710   0.00000  Uiso   1.00
C722   C     0.15218   0.68847   0.53288   0.00000  Uiso   1.00
C723   C     0.18978   0.70996   0.53264   0.00000  Uiso   1.00
C724   C     0.07912   0.68063   0.57192   0.00000  Uiso   1.00
C725   C     0.12482   0.68939   0.57794   0.00000  Uiso   1.00
C726   C     0.23037   0.76689   0.57032   0.00000  Uiso   1.00
C727   C     0.20234   0.73273   0.57665   0.00000  Uiso   1.00
C728   C     0.13487   0.71293   0.87153   0.00000  Uiso   1.00
C729   C     0.17231   0.73268   0.87391   0.00000  Uiso   1.00
C730   C     0.15371   0.68493   0.78369   0.00000  Uiso   1.00
C731   C     0.19051   0.70935   0.78298   0.00000  Uiso   1.00
C732   C     0.07897   0.67934   0.82304   0.00000  Uiso   1.00
C733   C     0.12335   0.69134   0.82624   0.00000  Uiso   1.00
C734   C     0.22753   0.76789   0.82134   0.00000  Uiso   1.00
C735   C     0.19948   0.73309   0.82787   0.00000  Uiso   1.00
C736   C     0.02269   0.60090   0.95354   0.00000  Uiso   1.00
C737   C     0.10091   0.85398   0.16213   0.00000  Uiso   1.00
C738   C     0.06118   0.87145   0.16481   0.00000  Uiso   1.00
C739   C     0.17466   0.84872   0.20090   0.00000  Uiso   1.00
C740   C     0.13083   0.86188   0.20510   0.00000  Uiso   1.00
C741   C     0.02344   0.93176   0.19886   0.00000  Uiso   1.00
C742   C     0.05368   0.90016   0.20678   0.00000  Uiso   1.00
C743   C     0.12008   0.88577   0.24892   0.00000  Uiso   1.00
C744   C     0.08179   0.90378   0.25017   0.00000  Uiso   1.00
C745   C     0.10173   0.85518   0.40734   0.00000  Uiso   1.00
C746   C     0.06450   0.87855   0.40786   0.00000  Uiso   1.00
C747   C     0.17566   0.84852   0.44843   0.00000  Uiso   1.00
C748   C     0.13122   0.85706   0.45002   0.00000  Uiso   1.00
C749   C     0.02912   0.93710   0.44682   0.00000  Uiso   1.00
C750   C     0.05599   0.90178   0.45149   0.00000  Uiso   1.00
C751   C     0.07343   0.89053   0.00129   0.00000  Uiso   1.00
C752   C     0.11481   0.87320   0.49887   0.00000  Uiso   1.00
C753   C     0.07706   0.89423   0.50018   0.00000  Uiso   1.00
C754   C     0.10012   0.85350   0.65539   0.00000  Uiso   1.00
C755   C     0.06260   0.87566   0.65384   0.00000  Uiso   1.00
C756   C     0.17675   0.84828   0.69316   0.00000  Uiso   1.00
C757   C     0.13111   0.85974   0.69721   0.00000  Uiso   1.00
C758   C     0.02662   0.93328   0.69494   0.00000  Uiso   1.00
C759   C     0.05301   0.89823   0.69967   0.00000  Uiso   1.00
C760   C     0.11842   0.87963   0.74495   0.00000  Uiso   1.00
C761   C     0.07667   0.89398   0.74790   0.00000  Uiso   1.00
C762   C     0.10112   0.85650   0.90635   0.00000  Uiso   1.00
C763   C     0.06384   0.87756   0.90544   0.00000  Uiso   1.00
C764   C     0.17329   0.84681   0.94692   0.00000  Uiso   1.00
C765   C     0.12839   0.85786   0.95100   0.00000  Uiso   1.00
C766   C     0.02471   0.93270   0.94800   0.00000  Uiso   1.00
C767   C     0.05048   0.89616   0.95281   0.00000  Uiso   1.00
C768   C     0.11459   0.87517   0.99863   0.00000  Uiso   1.00
C769   C     0.40207   0.14859   0.03611   0.00000  Uiso   1.00
C770   C     0.44042   0.12758   0.03692   0.00000  Uiso   1.00
C771   C     0.32531   0.15142   0.07174   0.00000  Uiso   1.00
C772   C     0.36964   0.14057   0.07550   0.00000  Uiso   1.00
C773   C     0.48024   0.07232   0.07485   0.00000  Uiso   1.00
C774   C     0.45044   0.10478   0.08000   0.00000  Uiso   1.00
C775   C     0.38136   0.11960   0.12102   0.00000  Uiso   1.00
C776   C     0.42138   0.10409   0.12404   0.00000  Uiso   1.00
C777   C     0.40241   0.14555   0.28274   0.00000  Uiso   1.00
C778   C     0.44174   0.12526   0.28534   0.00000  Uiso   1.00
C779   C     0.32657   0.15143   0.32041   0.00000  Uiso   1.00
C780   C     0.37270   0.14076   0.32457   0.00000  Uiso   1.00
C781   C     0.47936   0.07051   0.32870   0.00000  Uiso   1.00
C782   C     0.45004   0.10257   0.33113   0.00000  Uiso   1.00
C783   C     0.38470   0.12112   0.37100   0.00000  Uiso   1.00
C784   C     0.42359   0.10486   0.37711   0.00000  Uiso   1.00
C785   C     0.40158   0.14653   0.53651   0.00000  Uiso   1.00
C786   C     0.43986   0.12466   0.53784   0.00000  Uiso   1.00
C787   C     0.32751   0.15252   0.57429   0.00000  Uiso   1.00
C788   C     0.37114   0.13842   0.57881   0.00000  Uiso   1.00
C789   C     0.47799   0.06853   0.57479   0.00000  Uiso   1.00
C790   C     0.44625   0.09731   0.57888   0.00000  Uiso   1.00
C791   C     0.38228   0.11631   0.62396   0.00000  Uiso   1.00
C792   C     0.42145   0.09813   0.62683   0.00000  Uiso   1.00
C793   C     0.40141   0.15209   0.78941   0.00000  Uiso   1.00
C794   C     0.43902   0.12871   0.78926   0.00000  Uiso   1.00
C795   C     0.32347   0.15150   0.82181   0.00000  Uiso   1.00
C796   C     0.36986   0.14307   0.82688   0.00000  Uiso   1.00
C797   C     0.47550   0.06882   0.82746   0.00000  Uiso   1.00
C798   C     0.44739   0.10322   0.83114   0.00000  Uiso   1.00
C799   C     0.38360   0.12301   0.87458   0.00000  Uiso   1.00
C800   C     0.42322   0.10796   0.87969   0.00000  Uiso   1.00
C801   C     0.36642   0.28631   0.24572   0.00000  Uiso   1.00
C802   C     0.32845   0.26714   0.24961   0.00000  Uiso   1.00
C803   C     0.34582   0.31612   0.16213   0.00000  Uiso   1.00
C804   C     0.30896   0.29209   0.16199   0.00000  Uiso   1.00
C805   C     0.42164   0.32565   0.19758   0.00000  Uiso   1.00
C806   C     0.37647   0.30937   0.20108   0.00000  Uiso   1.00
C807   C     0.27423   0.23143   0.19786   0.00000  Uiso   1.00
C808   C     0.30136   0.26764   0.20576   0.00000  Uiso   1.00
C809   C     0.34600   0.31247   0.40880   0.00000  Uiso   1.00
C810   C     0.30796   0.29132   0.41001   0.00000  Uiso   1.00
C811   C     0.42212   0.32183   0.44906   0.00000  Uiso   1.00
C812   C     0.37731   0.30744   0.45025   0.00000  Uiso   1.00
C813   C     0.27275   0.23206   0.44994   0.00000  Uiso   1.00
C814   C     0.29915   0.26720   0.45507   0.00000  Uiso   1.00
C815   C     0.36595   0.28635   0.49777   0.00000  Uiso   1.00
C816   C     0.32578   0.27074   0.00337   0.00000  Uiso   1.00
C817   C     0.36313   0.29033   0.00080   0.00000  Uiso   1.00
C818   C     0.32638   0.26788   0.49972   0.00000  Uiso   1.00
C819   C     0.35983   0.29109   0.74279   0.00000  Uiso   1.00
C820   C     0.32090   0.27222   0.74338   0.00000  Uiso   1.00
C821   C     0.34803   0.31044   0.65218   0.00000  Uiso   1.00
C822   C     0.30756   0.29124   0.65350   0.00000  Uiso   1.00
C823   C     0.42089   0.31993   0.69833   0.00000  Uiso   1.00
C824   C     0.37598   0.30744   0.69682   0.00000  Uiso   1.00
C825   C     0.27145   0.23267   0.69416   0.00000  Uiso   1.00
C826   C     0.29671   0.26803   0.69751   0.00000  Uiso   1.00
C827   C     0.34733   0.31280   0.90962   0.00000  Uiso   1.00
C828   C     0.31221   0.28820   0.91058   0.00000  Uiso   1.00
C829   C     0.42151   0.32001   0.94842   0.00000  Uiso   1.00
C830   C     0.37646   0.31084   0.95350   0.00000  Uiso   1.00
C831   C     0.27341   0.23250   0.95173   0.00000  Uiso   1.00
C832   C     0.30071   0.26697   0.95740   0.00000  Uiso   1.00
C833   C     0.47531   0.39911   0.82313   0.00000  Uiso   1.00
C834   C     0.27461   0.56866   0.45529   0.00000  Uiso   1.00
C835   C     0.47700   0.40236   0.32303   0.00000  Uiso   1.00
C836   C     0.44581   0.43133   0.32867   0.00000  Uiso   1.00
C837   C     0.39836   0.48039   0.03510   0.00000  Uiso   1.00
C838   C     0.43653   0.45826   0.03576   0.00000  Uiso   1.00
C839   C     0.32433   0.48923   0.07639   0.00000  Uiso   1.00
C840   C     0.36902   0.47606   0.07735   0.00000  Uiso   1.00
C841   C     0.44424   0.43250   0.07878   0.00000  Uiso   1.00
C842   C     0.37796   0.45095   0.12027   0.00000  Uiso   1.00
C843   C     0.41773   0.43455   0.12570   0.00000  Uiso   1.00
C844   C     0.27128   0.57082   0.20040   0.00000  Uiso   1.00
C845   C     0.37802   0.44528   0.36979   0.00000  Uiso   1.00
C846   C     0.39790   0.47843   0.28786   0.00000  Uiso   1.00
C847   C     0.36854   0.46950   0.32786   0.00000  Uiso   1.00
C848   C     0.43611   0.45724   0.28598   0.00000  Uiso   1.00
C849   C     0.41765   0.42743   0.37112   0.00000  Uiso   1.00
C850   C     0.32502   0.48382   0.32712   0.00000  Uiso   1.00
C851   C     0.47571   0.40067   0.07314   0.00000  Uiso   1.00
C852   C     0.42038   0.43406   0.87748   0.00000  Uiso   1.00
C853   C     0.32383   0.48780   0.82953   0.00000  Uiso   1.00
C854   C     0.37040   0.47646   0.83171   0.00000  Uiso   1.00
C855   C     0.38075   0.45420   0.87709   0.00000  Uiso   1.00
C856   C     0.39722   0.47866   0.53800   0.00000  Uiso   1.00
C857   C     0.43469   0.45710   0.53631   0.00000  Uiso   1.00
C858   C     0.44522   0.43101   0.82876   0.00000  Uiso   1.00
C859   C     0.32505   0.48645   0.57953   0.00000  Uiso   1.00
C860   C     0.36915   0.47551   0.58251   0.00000  Uiso   1.00
C861   C     0.44663   0.43351   0.58106   0.00000  Uiso   1.00
C862   C     0.38238   0.45369   0.62834   0.00000  Uiso   1.00
C863   C     0.42194   0.43631   0.62896   0.00000  Uiso   1.00
C864   C     0.27130   0.56750   0.70074   0.00000  Uiso   1.00
C865   C     0.27231   0.56854   0.94993   0.00000  Uiso   1.00
C866   C     0.39917   0.47901   0.78824   0.00000  Uiso   1.00
C867   C     0.43363   0.45238   0.78351   0.00000  Uiso   1.00
C868   C     0.47532   0.40194   0.57458   0.00000  Uiso   1.00
C869   C     0.30301   0.59956   0.95283   0.00000  Uiso   1.00
C870   C     0.32694   0.59912   0.99979   0.00000  Uiso   1.00
C871   C     0.30517   0.60148   0.46187   0.00000  Uiso   1.00
C872   C     0.38772   0.79108   0.36879   0.00000  Uiso   1.00
C873   C     0.42522   0.64989   0.19607   0.00000  Uiso   1.00
C874   C     0.37931   0.64151   0.19815   0.00000  Uiso   1.00
C875   C     0.36385   0.62368   0.24581   0.00000  Uiso   1.00
C876   C     0.30917   0.62749   0.15634   0.00000  Uiso   1.00
C877   C     0.35065   0.64542   0.41437   0.00000  Uiso   1.00
C878   C     0.47535   0.73272   0.07445   0.00000  Uiso   1.00
C879   C     0.44985   0.76639   0.08104   0.00000  Uiso   1.00
C880   C     0.31060   0.62628   0.41958   0.00000  Uiso   1.00
C881   C     0.42352   0.76760   0.12690   0.00000  Uiso   1.00
C882   C     0.42450   0.65337   0.44655   0.00000  Uiso   1.00
C883   C     0.38184   0.63991   0.45347   0.00000  Uiso   1.00
C884   C     0.43923   0.79120   0.03647   0.00000  Uiso   1.00
C885   C     0.34882   0.64728   0.15491   0.00000  Uiso   1.00
C886   C     0.47734   0.73426   0.31796   0.00000  Uiso   1.00
C887   C     0.45088   0.76768   0.31936   0.00000  Uiso   1.00
C888   C     0.42468   0.76895   0.36490   0.00000  Uiso   1.00
C889   C     0.43834   0.78868   0.27477   0.00000  Uiso   1.00
C890   C     0.29685   0.60647   0.20330   0.00000  Uiso   1.00
C891   C     0.38303   0.78505   0.12442   0.00000  Uiso   1.00
C892   C     0.32429   0.60823   0.24913   0.00000  Uiso   1.00
C893   C     0.36535   0.61717   0.00107   0.00000  Uiso   1.00
C894   C     0.38248   0.78943   0.87135   0.00000  Uiso   1.00
C895   C     0.36344   0.62073   0.74526   0.00000  Uiso   1.00
C896   C     0.38351   0.78915   0.62258   0.00000  Uiso   1.00
C897   C     0.31354   0.62154   0.90698   0.00000  Uiso   1.00
C898   C     0.43739   0.79107   0.52987   0.00000  Uiso   1.00
C899   C     0.34904   0.64474   0.90977   0.00000  Uiso   1.00
C900   C     0.32447   0.60489   0.75121   0.00000  Uiso   1.00
C901   C     0.42055   0.65254   0.69609   0.00000  Uiso   1.00
C902   C     0.37511   0.64091   0.69906   0.00000  Uiso   1.00
C903   C     0.30788   0.62323   0.65680   0.00000  Uiso   1.00
C904   C     0.47716   0.73365   0.57208   0.00000  Uiso   1.00
C905   C     0.44714   0.76729   0.57428   0.00000  Uiso   1.00
C906   C     0.42160   0.76861   0.62161   0.00000  Uiso   1.00
C907   C     0.42272   0.65238   0.95118   0.00000  Uiso   1.00
C908   C     0.37774   0.63958   0.95386   0.00000  Uiso   1.00
C909   C     0.34484   0.64606   0.65693   0.00000  Uiso   1.00
C910   C     0.47522   0.73263   0.82480   0.00000  Uiso   1.00
C911   C     0.44544   0.76634   0.82700   0.00000  Uiso   1.00
C912   C     0.43829   0.79035   0.78199   0.00000  Uiso   1.00
C913   C     0.42001   0.76938   0.87313   0.00000  Uiso   1.00
C914   C     0.37087   0.61948   0.50042   0.00000  Uiso   1.00
C915   C     0.29849   0.60113   0.70487   0.00000  Uiso   1.00
C916   C     0.33242   0.60027   0.50471   0.00000  Uiso   1.00
C917   C     0.32676   0.82341   0.07334   0.00000  Uiso   1.00
C918   C     0.40186   0.81236   0.27654   0.00000  Uiso   1.00
C919   C     0.37293   0.80920   0.32206   0.00000  Uiso   1.00
C920   C     0.40205   0.81489   0.03790   0.00000  Uiso   1.00
C921   C     0.36887   0.95852   0.24591   0.00000  Uiso   1.00
C922   C     0.32876   0.94007   0.25004   0.00000  Uiso   1.00
C923   C     0.34918   0.98364   0.15971   0.00000  Uiso   1.00
C924   C     0.31486   0.95865   0.15744   0.00000  Uiso   1.00
C925   C     0.42398   0.99422   0.19941   0.00000  Uiso   1.00
C926   C     0.38028   0.97990   0.20074   0.00000  Uiso   1.00
C927   C     0.27161   0.90367   0.19822   0.00000  Uiso   1.00
C928   C     0.30378   0.93609   0.20359   0.00000  Uiso   1.00
C929   C     0.32786   0.82240   0.32218   0.00000  Uiso   1.00
C930   C     0.35615   0.98052   0.40917   0.00000  Uiso   1.00
C931   C     0.31806   0.96001   0.40908   0.00000  Uiso   1.00
C932   C     0.38446   0.97425   0.45202   0.00000  Uiso   1.00
C933   C     0.27669   0.90362   0.44769   0.00000  Uiso   1.00
C934   C     0.30613   0.93675   0.45411   0.00000  Uiso   1.00
C935   C     0.42765   0.98789   0.44973   0.00000  Uiso   1.00
C936   C     0.37003   0.80770   0.07742   0.00000  Uiso   1.00
C937   C     0.37227   0.95272   0.49798   0.00000  Uiso   1.00
C938   C     0.32666   0.82382   0.82166   0.00000  Uiso   1.00
C939   C     0.40302   0.81726   0.53580   0.00000  Uiso   1.00
C940   C     0.32934   0.82477   0.57212   0.00000  Uiso   1.00
C941   C     0.36680   0.95889   0.74473   0.00000  Uiso   1.00
C942   C     0.32867   0.93926   0.74816   0.00000  Uiso   1.00
C943   C     0.34640   0.98670   0.65828   0.00000  Uiso   1.00
C944   C     0.30934   0.96316   0.66020   0.00000  Uiso   1.00
C945   C     0.37873   0.97930   0.69814   0.00000  Uiso   1.00
C946   C     0.27255   0.90365   0.69646   0.00000  Uiso   1.00
C947   C     0.30179   0.93649   0.70256   0.00000  Uiso   1.00
C948   C     0.40137   0.81475   0.78082   0.00000  Uiso   1.00
C949   C     0.34940   0.98434   0.91094   0.00000  Uiso   1.00
C950   C     0.31159   0.96338   0.90869   0.00000  Uiso   1.00
C951   C     0.37153   0.81132   0.82403   0.00000  Uiso   1.00
C952   C     0.37714   0.98057   0.95592   0.00000  Uiso   1.00
C953   C     0.27050   0.90491   0.94747   0.00000  Uiso   1.00
C954   C     0.29939   0.93853   0.95189   0.00000  Uiso   1.00
C955   C     0.42360   0.98666   0.95114   0.00000  Uiso   1.00
C956   C     0.42405   0.99255   0.69881   0.00000  Uiso   1.00
C957   C     0.37250   0.81140   0.57733   0.00000  Uiso   1.00
C958   C     0.33037   0.93854   0.50136   0.00000  Uiso   1.00
C959   C     0.36466   0.95699   0.99846   0.00000  Uiso   1.00
C960   C     0.32484   0.93898   0.99853   0.00000  Uiso   1.00
C961   C     0.67174   0.18001   0.45444   0.00000  Uiso   1.00
C962   C     0.67532   0.18252   0.20623   0.00000  Uiso   1.00
C963   C     0.63169   0.04274   0.12659   0.00000  Uiso   1.00
C964   C     0.67130   0.06073   0.13321   0.00000  Uiso   1.00
C965   C     0.65029   0.01825   0.03660   0.00000  Uiso   1.00
C966   C     0.68922   0.03862   0.04102   0.00000  Uiso   1.00
C967   C     0.57631   0.01373   0.07339   0.00000  Uiso   1.00
C968   C     0.62040   0.02427   0.07830   0.00000  Uiso   1.00
C969   C     0.72870   0.09608   0.08338   0.00000  Uiso   1.00
C970   C     0.69594   0.06278   0.08519   0.00000  Uiso   1.00
C971   C     0.63203   0.05103   0.37525   0.00000  Uiso   1.00
C972   C     0.67253   0.06522   0.38211   0.00000  Uiso   1.00
C973   C     0.65208   0.02121   0.28945   0.00000  Uiso   1.00
C974   C     0.69122   0.03964   0.29007   0.00000  Uiso   1.00
C975   C     0.57971   0.01446   0.32623   0.00000  Uiso   1.00
C976   C     0.62257   0.02847   0.32968   0.00000  Uiso   1.00
C977   C     0.72744   0.09913   0.33109   0.00000  Uiso   1.00
C978   C     0.69923   0.06396   0.33497   0.00000  Uiso   1.00
C979   C     0.60168   0.18977   0.16399   0.00000  Uiso   1.00
C980   C     0.62626   0.18991   0.45349   0.00000  Uiso   1.00
C981   C     0.59787   0.18772   0.40924   0.00000  Uiso   1.00
C982   C     0.62943   0.19678   0.20657   0.00000  Uiso   1.00
C983   C     0.67059   0.17767   0.70405   0.00000  Uiso   1.00
C984   C     0.59959   0.18606   0.65972   0.00000  Uiso   1.00
C985   C     0.57628   0.01089   0.57742   0.00000  Uiso   1.00
C986   C     0.67118   0.17722   0.95533   0.00000  Uiso   1.00
C987   C     0.63548   0.04155   0.62899   0.00000  Uiso   1.00
C988   C     0.67242   0.06079   0.63166   0.00000  Uiso   1.00
C989   C     0.64723   0.02160   0.53697   0.00000  Uiso   1.00
C990   C     0.68354   0.04516   0.53702   0.00000  Uiso   1.00
C991   C     0.61991   0.02357   0.58106   0.00000  Uiso   1.00
C992   C     0.72273   0.10116   0.57878   0.00000  Uiso   1.00
C993   C     0.69659   0.06499   0.58208   0.00000  Uiso   1.00
C994   C     0.63804   0.04332   0.87928   0.00000  Uiso   1.00
C995   C     0.67572   0.06071   0.88069   0.00000  Uiso   1.00
C996   C     0.65122   0.01959   0.78718   0.00000  Uiso   1.00
C997   C     0.68849   0.04091   0.78516   0.00000  Uiso   1.00
C998   C     0.57721   0.01501   0.82826   0.00000  Uiso   1.00
C999   C     0.62265   0.02550   0.83197   0.00000  Uiso   1.00
C1000  C     0.72752   0.09778   0.83060   0.00000  Uiso   1.00
C1001  C     0.70118   0.06110   0.83274   0.00000  Uiso   1.00
C1002  C     0.62510   0.18784   0.95481   0.00000  Uiso   1.00
C1003  C     0.62430   0.18709   0.70578   0.00000  Uiso   1.00
C1004  C     0.59354   0.18098   0.91525   0.00000  Uiso   1.00
C1005  C     0.56258   0.21123   0.40476   0.00000  Uiso   1.00
C1006  C     0.69444   0.39774   0.32981   0.00000  Uiso   1.00
C1007  C     0.68649   0.37296   0.28583   0.00000  Uiso   1.00
C1008  C     0.51931   0.26643   0.19934   0.00000  Uiso   1.00
C1009  C     0.55002   0.23285   0.20594   0.00000  Uiso   1.00
C1010  C     0.68563   0.37601   0.03155   0.00000  Uiso   1.00
C1011  C     0.57756   0.23471   0.25239   0.00000  Uiso   1.00
C1012  C     0.57506   0.34651   0.07245   0.00000  Uiso   1.00
C1013  C     0.61928   0.35823   0.07516   0.00000  Uiso   1.00
C1014  C     0.63208   0.37395   0.37670   0.00000  Uiso   1.00
C1015  C     0.64951   0.34923   0.28513   0.00000  Uiso   1.00
C1016  C     0.64719   0.35573   0.03050   0.00000  Uiso   1.00
C1017  C     0.51744   0.26510   0.44789   0.00000  Uiso   1.00
C1018  C     0.55061   0.23438   0.44923   0.00000  Uiso   1.00
C1019  C     0.63336   0.37640   0.12360   0.00000  Uiso   1.00
C1020  C     0.57267   0.22850   0.00537   0.00000  Uiso   1.00
C1021  C     0.57554   0.34593   0.32291   0.00000  Uiso   1.00
C1022  C     0.61962   0.35482   0.32685   0.00000  Uiso   1.00
C1023  C     0.56165   0.20856   0.16182   0.00000  Uiso   1.00
C1024  C     0.61827   0.21873   0.25035   0.00000  Uiso   1.00
C1025  C     0.67268   0.39248   0.12567   0.00000  Uiso   1.00
C1026  C     0.66986   0.39366   0.37897   0.00000  Uiso   1.00
C1027  C     0.69690   0.39737   0.07926   0.00000  Uiso   1.00
C1028  C     0.61131   0.20831   0.49866   0.00000  Uiso   1.00
C1029  C     0.61378   0.20966   0.00150   0.00000  Uiso   1.00
C1030  C     0.57546   0.23097   0.49901   0.00000  Uiso   1.00
C1031  C     0.63328   0.37454   0.62403   0.00000  Uiso   1.00
C1032  C     0.67098   0.39638   0.62574   0.00000  Uiso   1.00
C1033  C     0.55504   0.20086   0.91640   0.00000  Uiso   1.00
C1034  C     0.68360   0.37566   0.78001   0.00000  Uiso   1.00
C1035  C     0.52003   0.26278   0.70115   0.00000  Uiso   1.00
C1036  C     0.54823   0.23001   0.70290   0.00000  Uiso   1.00
C1037  C     0.57038   0.22415   0.75259   0.00000  Uiso   1.00
C1038  C     0.57522   0.34146   0.57387   0.00000  Uiso   1.00
C1039  C     0.62046   0.35541   0.57785   0.00000  Uiso   1.00
C1040  C     0.64578   0.35354   0.78026   0.00000  Uiso   1.00
C1041  C     0.62886   0.37829   0.86943   0.00000  Uiso   1.00
C1042  C     0.64986   0.35227   0.53503   0.00000  Uiso   1.00
C1043  C     0.60791   0.20447   0.75239   0.00000  Uiso   1.00
C1044  C     0.51830   0.26227   0.95062   0.00000  Uiso   1.00
C1045  C     0.54368   0.22627   0.95958   0.00000  Uiso   1.00
C1046  C     0.68611   0.37493   0.53709   0.00000  Uiso   1.00
C1047  C     0.57464   0.34262   0.82372   0.00000  Uiso   1.00
C1048  C     0.61916   0.35541   0.82500   0.00000  Uiso   1.00
C1049  C     0.56109   0.20790   0.65708   0.00000  Uiso   1.00
C1050  C     0.69607   0.39991   0.57926   0.00000  Uiso   1.00
C1051  C     0.52432   0.59911   0.44735   0.00000  Uiso   1.00
C1052  C     0.60488   0.51987   0.15895   0.00000  Uiso   1.00
C1053  C     0.56787   0.54104   0.15725   0.00000  Uiso   1.00
C1054  C     0.67828   0.51203   0.20215   0.00000  Uiso   1.00
C1055  C     0.63443   0.52493   0.20146   0.00000  Uiso   1.00
C1056  C     0.55669   0.56493   0.20050   0.00000  Uiso   1.00
C1057  C     0.62127   0.54646   0.24895   0.00000  Uiso   1.00
C1058  C     0.58322   0.56590   0.24820   0.00000  Uiso   1.00
C1059  C     0.72574   0.42958   0.07642   0.00000  Uiso   1.00
C1060  C     0.60259   0.51816   0.40797   0.00000  Uiso   1.00
C1061  C     0.56516   0.54126   0.40564   0.00000  Uiso   1.00
C1062  C     0.72358   0.43042   0.32910   0.00000  Uiso   1.00
C1063  C     0.67708   0.51446   0.44683   0.00000  Uiso   1.00
C1064  C     0.63110   0.52535   0.45045   0.00000  Uiso   1.00
C1065  C     0.55356   0.56512   0.44934   0.00000  Uiso   1.00
C1066  C     0.52546   0.59641   0.19756   0.00000  Uiso   1.00
C1067  C     0.62029   0.54747   0.49437   0.00000  Uiso   1.00
C1068  C     0.57994   0.56328   0.49669   0.00000  Uiso   1.00
C1069  C     0.60228   0.52336   0.66054   0.00000  Uiso   1.00
C1070  C     0.56148   0.54159   0.66097   0.00000  Uiso   1.00
C1071  C     0.67692   0.51778   0.69956   0.00000  Uiso   1.00
C1072  C     0.63193   0.53104   0.70057   0.00000  Uiso   1.00
C1073  C     0.55286   0.56707   0.70431   0.00000  Uiso   1.00
C1074  C     0.62094   0.55399   0.74559   0.00000  Uiso   1.00
C1075  C     0.58191   0.57057   0.74693   0.00000  Uiso   1.00
C1076  C     0.72523   0.43455   0.57557   0.00000  Uiso   1.00
C1077  C     0.72647   0.43203   0.82127   0.00000  Uiso   1.00
C1078  C     0.60335   0.52226   0.90525   0.00000  Uiso   1.00
C1079  C     0.52405   0.59689   0.94688   0.00000  Uiso   1.00
C1080  C     0.56667   0.54400   0.90753   0.00000  Uiso   1.00
C1081  C     0.67642   0.51095   0.94826   0.00000  Uiso   1.00
C1082  C     0.63235   0.52564   0.94923   0.00000  Uiso   1.00
C1083  C     0.55412   0.56493   0.95245   0.00000  Uiso   1.00
C1084  C     0.69272   0.40264   0.82451   0.00000  Uiso   1.00
C1085  C     0.52201   0.59904   0.69867   0.00000  Uiso   1.00
C1086  C     0.66649   0.40107   0.86914   0.00000  Uiso   1.00
C1087  C     0.57905   0.56383   0.99838   0.00000  Uiso   1.00
C1088  C     0.61928   0.54701   0.99656   0.00000  Uiso   1.00
C1089  C     0.63040   0.71466   0.12051   0.00000  Uiso   1.00
C1090  C     0.66786   0.73460   0.12331   0.00000  Uiso   1.00
C1091  C     0.64719   0.68842   0.03203   0.00000  Uiso   1.00
C1092  C     0.68545   0.71182   0.03286   0.00000  Uiso   1.00
C1093  C     0.57426   0.67903   0.07315   0.00000  Uiso   1.00
C1094  C     0.61750   0.69266   0.07454   0.00000  Uiso   1.00
C1095  C     0.72263   0.77044   0.07292   0.00000  Uiso   1.00
C1096  C     0.69320   0.73783   0.07588   0.00000  Uiso   1.00
C1097  C     0.63501   0.71236   0.37049   0.00000  Uiso   1.00
C1098  C     0.67364   0.73092   0.37165   0.00000  Uiso   1.00
C1099  C     0.65042   0.68813   0.28076   0.00000  Uiso   1.00
C1100  C     0.68976   0.70740   0.28095   0.00000  Uiso   1.00
C1101  C     0.57731   0.68062   0.32284   0.00000  Uiso   1.00
C1102  C     0.62245   0.69220   0.32536   0.00000  Uiso   1.00
C1103  C     0.73088   0.76463   0.32146   0.00000  Uiso   1.00
C1104  C     0.70078   0.73124   0.32617   0.00000  Uiso   1.00
C1105  C     0.63037   0.71252   0.62089   0.00000  Uiso   1.00
C1106  C     0.67099   0.73001   0.62317   0.00000  Uiso   1.00
C1107  C     0.64952   0.68469   0.53376   0.00000  Uiso   1.00
C1108  C     0.68879   0.70375   0.53735   0.00000  Uiso   1.00
C1109  C     0.57546   0.67444   0.57332   0.00000  Uiso   1.00
C1110  C     0.61837   0.69036   0.57393   0.00000  Uiso   1.00
C1111  C     0.72868   0.76409   0.57402   0.00000  Uiso   1.00
C1112  C     0.69720   0.73171   0.57798   0.00000  Uiso   1.00
C1113  C     0.63361   0.71425   0.87337   0.00000  Uiso   1.00
C1114  C     0.67403   0.73172   0.87375   0.00000  Uiso   1.00
C1115  C     0.64787   0.69020   0.78220   0.00000  Uiso   1.00
C1116  C     0.68597   0.71317   0.77987   0.00000  Uiso   1.00
C1117  C     0.57444   0.68184   0.82262   0.00000  Uiso   1.00
C1118  C     0.61839   0.69529   0.82574   0.00000  Uiso   1.00
C1119  C     0.72736   0.76825   0.82239   0.00000  Uiso   1.00
C1120  C     0.69892   0.73322   0.82693   0.00000  Uiso   1.00
C1121  C     0.59974   0.85407   0.15963   0.00000  Uiso   1.00
C1122  C     0.56392   0.88071   0.15638   0.00000  Uiso   1.00
C1123  C     0.67450   0.84688   0.19944   0.00000  Uiso   1.00
C1124  C     0.62859   0.85834   0.20274   0.00000  Uiso   1.00
C1125  C     0.52333   0.93623   0.20110   0.00000  Uiso   1.00
C1126  C     0.55294   0.90208   0.20285   0.00000  Uiso   1.00
C1127  C     0.61605   0.87833   0.24857   0.00000  Uiso   1.00
C1128  C     0.57788   0.89752   0.25056   0.00000  Uiso   1.00
C1129  C     0.60277   0.85527   0.40772   0.00000  Uiso   1.00
C1130  C     0.56554   0.87738   0.41002   0.00000  Uiso   1.00
C1131  C     0.67627   0.84571   0.44615   0.00000  Uiso   1.00
C1132  C     0.63212   0.85889   0.45013   0.00000  Uiso   1.00
C1133  C     0.52580   0.93387   0.45210   0.00000  Uiso   1.00
C1134  C     0.55448   0.90198   0.45564   0.00000  Uiso   1.00
C1135  C     0.62153   0.88111   0.49713   0.00000  Uiso   1.00
C1136  C     0.57687   0.89790   0.00356   0.00000  Uiso   1.00
C1137  C     0.61709   0.88387   0.00128   0.00000  Uiso   1.00
C1138  C     0.58187   0.89969   0.50143   0.00000  Uiso   1.00
C1139  C     0.59924   0.85320   0.65737   0.00000  Uiso   1.00
C1140  C     0.56162   0.87650   0.65613   0.00000  Uiso   1.00
C1141  C     0.67293   0.84427   0.69628   0.00000  Uiso   1.00
C1142  C     0.62809   0.85764   0.70102   0.00000  Uiso   1.00
C1143  C     0.52189   0.93465   0.69884   0.00000  Uiso   1.00
C1144  C     0.55097   0.89999   0.70124   0.00000  Uiso   1.00
C1145  C     0.61498   0.87780   0.74875   0.00000  Uiso   1.00
C1146  C     0.57970   0.90007   0.74619   0.00000  Uiso   1.00
C1147  C     0.59999   0.85602   0.90995   0.00000  Uiso   1.00
C1148  C     0.56165   0.87658   0.91052   0.00000  Uiso   1.00
C1149  C     0.67416   0.85043   0.94876   0.00000  Uiso   1.00
C1150  C     0.62890   0.86314   0.95203   0.00000  Uiso   1.00
C1151  C     0.52100   0.93279   0.95126   0.00000  Uiso   1.00
C1152  C     0.55062   0.89664   0.95699   0.00000  Uiso   1.00
C1153  C     0.89730   0.14537   0.03229   0.00000  Uiso   1.00
C1154  C     0.93298   0.12160   0.02576   0.00000  Uiso   1.00
C1155  C     0.82633   0.15214   0.07895   0.00000  Uiso   1.00
C1156  C     0.87041   0.14233   0.07832   0.00000  Uiso   1.00
C1157  C     0.97615   0.06614   0.06965   0.00000  Uiso   1.00
C1158  C     0.94683   0.09886   0.07167   0.00000  Uiso   1.00
C1159  C     0.88379   0.11891   0.12239   0.00000  Uiso   1.00
C1160  C     0.92327   0.10370   0.12183   0.00000  Uiso   1.00
C1161  C     0.89696   0.14693   0.28754   0.00000  Uiso   1.00
C1162  C     0.93611   0.12659   0.28736   0.00000  Uiso   1.00
C1163  C     0.82513   0.15217   0.32909   0.00000  Uiso   1.00
C1164  C     0.87071   0.14183   0.33414   0.00000  Uiso   1.00
C1165  C     0.97864   0.07021   0.32031   0.00000  Uiso   1.00
C1166  C     0.94776   0.10058   0.32764   0.00000  Uiso   1.00
C1167  C     0.88460   0.12088   0.37808   0.00000  Uiso   1.00
C1168  C     0.92279   0.10032   0.37663   0.00000  Uiso   1.00
C1169  C     0.89789   0.14685   0.53777   0.00000  Uiso   1.00
C1170  C     0.93714   0.12752   0.53496   0.00000  Uiso   1.00
C1171  C     0.82437   0.15580   0.58010   0.00000  Uiso   1.00
C1172  C     0.86925   0.14221   0.58211   0.00000  Uiso   1.00
C1173  C     0.97602   0.07186   0.57444   0.00000  Uiso   1.00
C1174  C     0.94587   0.10374   0.57815   0.00000  Uiso   1.00
C1175  C     0.87959   0.11901   0.62420   0.00000  Uiso   1.00
C1176  C     0.92003   0.10358   0.62524   0.00000  Uiso   1.00
C1177  C     0.89493   0.14278   0.78452   0.00000  Uiso   1.00
C1178  C     0.92966   0.11935   0.78207   0.00000  Uiso   1.00
C1179  C     0.82378   0.15759   0.82796   0.00000  Uiso   1.00
C1180  C     0.86758   0.14270   0.83014   0.00000  Uiso   1.00
C1181  C     0.97634   0.06830   0.82448   0.00000  Uiso   1.00
C1182  C     0.94258   0.09720   0.82671   0.00000  Uiso   1.00
C1183  C     0.88123   0.11953   0.87479   0.00000  Uiso   1.00
C1184  C     0.92100   0.10268   0.87625   0.00000  Uiso   1.00
C1185  C     0.86027   0.29170   0.25389   0.00000  Uiso   1.00
C1186  C     0.82269   0.27660   0.25628   0.00000  Uiso   1.00
C1187  C     0.84599   0.31538   0.16297   0.00000  Uiso   1.00
C1188  C     0.80887   0.29333   0.16244   0.00000  Uiso   1.00
C1189  C     0.92091   0.31991   0.20342   0.00000  Uiso   1.00
C1190  C     0.87515   0.30998   0.20528   0.00000  Uiso   1.00
C1191  C     0.77422   0.23381   0.20470   0.00000  Uiso   1.00
C1192  C     0.79903   0.27095   0.20941   0.00000  Uiso   1.00
C1193  C     0.84422   0.31679   0.41540   0.00000  Uiso   1.00
C1194  C     0.80692   0.29468   0.41535   0.00000  Uiso   1.00
C1195  C     0.91864   0.32101   0.45397   0.00000  Uiso   1.00
C1196  C     0.87222   0.31324   0.45719   0.00000  Uiso   1.00
C1197  C     0.77157   0.23494   0.45379   0.00000  Uiso   1.00
C1198  C     0.79828   0.27002   0.45972   0.00000  Uiso   1.00
C1199  C     0.97966   0.39746   0.33012   0.00000  Uiso   1.00
C1200  C     0.97730   0.39717   0.08183   0.00000  Uiso   1.00
C1201  C     0.86476   0.28377   0.00434   0.00000  Uiso   1.00
C1202  C     0.82317   0.27083   0.01019   0.00000  Uiso   1.00
C1203  C     0.86485   0.28771   0.75661   0.00000  Uiso   1.00
C1204  C     0.82670   0.26876   0.76005   0.00000  Uiso   1.00
C1205  C     0.84587   0.31485   0.66777   0.00000  Uiso   1.00
C1206  C     0.80687   0.29490   0.67085   0.00000  Uiso   1.00
C1207  C     0.92057   0.32063   0.70436   0.00000  Uiso   1.00
C1208  C     0.87589   0.30769   0.70774   0.00000  Uiso   1.00
C1209  C     0.77151   0.23512   0.70583   0.00000  Uiso   1.00
C1210  C     0.79966   0.26770   0.71344   0.00000  Uiso   1.00
C1211  C     0.84902   0.30956   0.91599   0.00000  Uiso   1.00
C1212  C     0.80957   0.29190   0.91690   0.00000  Uiso   1.00
C1213  C     0.92166   0.31419   0.95507   0.00000  Uiso   1.00
C1214  C     0.87778   0.30177   0.95698   0.00000  Uiso   1.00
C1215  C     0.77007   0.23640   0.95678   0.00000  Uiso   1.00
C1216  C     0.79615   0.27075   0.96393   0.00000  Uiso   1.00
C1217  C     0.82155   0.27468   0.50801   0.00000  Uiso   1.00
C1218  C     0.97568   0.39724   0.82929   0.00000  Uiso   1.00
C1219  C     0.85970   0.29453   0.50587   0.00000  Uiso   1.00
C1220  C     0.97746   0.39906   0.58124   0.00000  Uiso   1.00
C1221  C     0.80728   0.59719   0.20237   0.00000  Uiso   1.00
C1222  C     0.82778   0.48074   0.32261   0.00000  Uiso   1.00
C1223  C     0.88767   0.45108   0.37479   0.00000  Uiso   1.00
C1224  C     0.95311   0.43281   0.33204   0.00000  Uiso   1.00
C1225  C     0.90398   0.47703   0.04121   0.00000  Uiso   1.00
C1226  C     0.94382   0.45821   0.04366   0.00000  Uiso   1.00
C1227  C     0.82770   0.48189   0.07469   0.00000  Uiso   1.00
C1228  C     0.87262   0.46813   0.07962   0.00000  Uiso   1.00
C1229  C     0.95017   0.43233   0.08765   0.00000  Uiso   1.00
C1230  C     0.88368   0.44725   0.12568   0.00000  Uiso   1.00
C1231  C     0.92387   0.43418   0.13399   0.00000  Uiso   1.00
C1232  C     0.77689   0.56442   0.19952   0.00000  Uiso   1.00
C1233  C     0.92942   0.43737   0.37869   0.00000  Uiso   1.00
C1234  C     0.90148   0.47170   0.28097   0.00000  Uiso   1.00
C1235  C     0.87120   0.46629   0.32435   0.00000  Uiso   1.00
C1236  C     0.94226   0.45322   0.28533   0.00000  Uiso   1.00
C1237  C     0.77872   0.56815   0.44558   0.00000  Uiso   1.00
C1238  C     0.83204   0.59930   0.00298   0.00000  Uiso   1.00
C1239  C     0.92465   0.43953   0.87668   0.00000  Uiso   1.00
C1240  C     0.87296   0.47488   0.82459   0.00000  Uiso   1.00
C1241  C     0.90419   0.47834   0.53802   0.00000  Uiso   1.00
C1242  C     0.77528   0.56693   0.95173   0.00000  Uiso   1.00
C1243  C     0.94305   0.45893   0.54441   0.00000  Uiso   1.00
C1244  C     0.88544   0.45790   0.87198   0.00000  Uiso   1.00
C1245  C     0.82818   0.48968   0.57577   0.00000  Uiso   1.00
C1246  C     0.87209   0.47367   0.57800   0.00000  Uiso   1.00
C1247  C     0.94956   0.43189   0.58824   0.00000  Uiso   1.00
C1248  C     0.88182   0.45116   0.62424   0.00000  Uiso   1.00
C1249  C     0.92042   0.43317   0.62984   0.00000  Uiso   1.00
C1250  C     0.77845   0.56902   0.70119   0.00000  Uiso   1.00
C1251  C     0.90272   0.47873   0.78206   0.00000  Uiso   1.00
C1252  C     0.94812   0.43287   0.82801   0.00000  Uiso   1.00
C1253  C     0.93751   0.45397   0.78246   0.00000  Uiso   1.00
C1254  C     0.82803   0.48631   0.82415   0.00000  Uiso   1.00
C1255  C     0.81747   0.62619   0.40422   0.00000  Uiso   1.00
C1256  C     0.88501   0.79729   0.12091   0.00000  Uiso   1.00
C1257  C     0.87077   0.62258   0.49722   0.00000  Uiso   1.00
C1258  C     0.92501   0.65585   0.19853   0.00000  Uiso   1.00
C1259  C     0.88171   0.64158   0.19938   0.00000  Uiso   1.00
C1260  C     0.85468   0.64761   0.40530   0.00000  Uiso   1.00
C1261  C     0.83432   0.60121   0.49806   0.00000  Uiso   1.00
C1262  C     0.94087   0.79741   0.28266   0.00000  Uiso   1.00
C1263  C     0.97757   0.73830   0.07306   0.00000  Uiso   1.00
C1264  C     0.94824   0.77252   0.07682   0.00000  Uiso   1.00
C1265  C     0.92188   0.77546   0.12215   0.00000  Uiso   1.00
C1266  C     0.92550   0.65983   0.44811   0.00000  Uiso   1.00
C1267  C     0.88364   0.64355   0.45025   0.00000  Uiso   1.00
C1268  C     0.81578   0.62106   0.15665   0.00000  Uiso   1.00
C1269  C     0.85167   0.64391   0.15515   0.00000  Uiso   1.00
C1270  C     0.87153   0.61847   0.24383   0.00000  Uiso   1.00
C1271  C     0.98117   0.74103   0.32167   0.00000  Uiso   1.00
C1272  C     0.95197   0.77441   0.33034   0.00000  Uiso   1.00
C1273  C     0.92229   0.77452   0.37409   0.00000  Uiso   1.00
C1274  C     0.93600   0.79550   0.03103   0.00000  Uiso   1.00
C1275  C     0.88083   0.78583   0.36455   0.00000  Uiso   1.00
C1276  C     0.83140   0.60101   0.24977   0.00000  Uiso   1.00
C1277  C     0.80877   0.60105   0.45015   0.00000  Uiso   1.00
C1278  C     0.88065   0.78402   0.87415   0.00000  Uiso   1.00
C1279  C     0.88720   0.79267   0.62271   0.00000  Uiso   1.00
C1280  C     0.84556   0.65356   0.91683   0.00000  Uiso   1.00
C1281  C     0.92565   0.65373   0.69842   0.00000  Uiso   1.00
C1282  C     0.88265   0.64398   0.70261   0.00000  Uiso   1.00
C1283  C     0.80712   0.63199   0.91887   0.00000  Uiso   1.00
C1284  C     0.83246   0.60566   0.75212   0.00000  Uiso   1.00
C1285  C     0.98080   0.73707   0.57641   0.00000  Uiso   1.00
C1286  C     0.95242   0.77183   0.57849   0.00000  Uiso   1.00
C1287  C     0.92760   0.77822   0.62538   0.00000  Uiso   1.00
C1288  C     0.92275   0.66011   0.95029   0.00000  Uiso   1.00
C1289  C     0.87753   0.64574   0.95445   0.00000  Uiso   1.00
C1290  C     0.81371   0.62601   0.66054   0.00000  Uiso   1.00
C1291  C     0.85079   0.64744   0.66087   0.00000  Uiso   1.00
C1292  C     0.93744   0.78762   0.78456   0.00000  Uiso   1.00
C1293  C     0.97572   0.73412   0.82329   0.00000  Uiso   1.00
C1294  C     0.94726   0.76595   0.83011   0.00000  Uiso   1.00
C1295  C     0.87049   0.62660   0.75073   0.00000  Uiso   1.00
C1296  C     0.91945   0.76551   0.87517   0.00000  Uiso   1.00
C1297  C     0.80292   0.60111   0.95881   0.00000  Uiso   1.00
C1298  C     0.93958   0.79231   0.53331   0.00000  Uiso   1.00
C1299  C     0.80516   0.60392   0.70752   0.00000  Uiso   1.00
C1300  C     0.86980   0.62045   0.99939   0.00000  Uiso   1.00
C1301  C     0.90337   0.81597   0.27885   0.00000  Uiso   1.00
C1302  C     0.82649   0.82337   0.32064   0.00000  Uiso   1.00
C1303  C     0.86699   0.95847   0.24925   0.00000  Uiso   1.00
C1304  C     0.82843   0.93923   0.25254   0.00000  Uiso   1.00
C1305  C     0.84726   0.98350   0.16164   0.00000  Uiso   1.00
C1306  C     0.80734   0.96452   0.16468   0.00000  Uiso   1.00
C1307  C     0.92365   0.99078   0.19833   0.00000  Uiso   1.00
C1308  C     0.87826   0.97861   0.20205   0.00000  Uiso   1.00
C1309  C     0.77388   0.90328   0.19907   0.00000  Uiso   1.00
C1310  C     0.80085   0.93786   0.20702   0.00000  Uiso   1.00
C1311  C     0.89883   0.81689   0.03115   0.00000  Uiso   1.00
C1312  C     0.85029   0.98131   0.41074   0.00000  Uiso   1.00
C1313  C     0.81246   0.95963   0.41175   0.00000  Uiso   1.00
C1314  C     0.88203   0.97323   0.45306   0.00000  Uiso   1.00
C1315  C     0.77548   0.90096   0.44967   0.00000  Uiso   1.00
C1316  C     0.80427   0.93543   0.45438   0.00000  Uiso   1.00
C1317  C     0.87030   0.81335   0.07340   0.00000  Uiso   1.00
C1318  C     0.82529   0.82398   0.06868   0.00000  Uiso   1.00
C1319  C     0.92632   0.98556   0.44608   0.00000  Uiso   1.00
C1320  C     0.87074   0.80866   0.31897   0.00000  Uiso   1.00
C1321  C     0.87305   0.94980   0.49632   0.00000  Uiso   1.00
C1322  C     0.82688   0.82318   0.82330   0.00000  Uiso   1.00
C1323  C     0.82778   0.81950   0.57204   0.00000  Uiso   1.00
C1324  C     0.89972   0.80922   0.78382   0.00000  Uiso   1.00
C1325  C     0.90043   0.81189   0.52995   0.00000  Uiso   1.00
C1326  C     0.87125   0.94995   0.74391   0.00000  Uiso   1.00
C1327  C     0.83143   0.93632   0.74901   0.00000  Uiso   1.00
C1328  C     0.85130   0.98052   0.65735   0.00000  Uiso   1.00
C1329  C     0.81336   0.96019   0.65785   0.00000  Uiso   1.00
C1330  C     0.92614   0.98845   0.69584   0.00000  Uiso   1.00
C1331  C     0.88195   0.97241   0.69741   0.00000  Uiso   1.00
C1332  C     0.77310   0.90381   0.69817   0.00000  Uiso   1.00
C1333  C     0.80335   0.93660   0.70384   0.00000  Uiso   1.00
C1334  C     0.87002   0.80723   0.82866   0.00000  Uiso   1.00
C1335  C     0.85221   0.97970   0.90454   0.00000  Uiso   1.00
C1336  C     0.81441   0.95902   0.90282   0.00000  Uiso   1.00
C1337  C     0.92655   0.98433   0.94664   0.00000  Uiso   1.00
C1338  C     0.88198   0.97050   0.94612   0.00000  Uiso   1.00
C1339  C     0.77201   0.90507   0.94507   0.00000  Uiso   1.00
C1340  C     0.80421   0.93532   0.94854   0.00000  Uiso   1.00
C1341  C     0.87324   0.80997   0.57606   0.00000  Uiso   1.00
C1342  C     0.86874   0.95215   0.99372   0.00000  Uiso   1.00
C1343  C     0.83036   0.93597   0.99537   0.00000  Uiso   1.00
C1344  C     0.83290   0.93490   0.50075   0.00000  Uiso   1.00
O1345  O     0.23633   0.11343   0.12146   0.00000  Uiso   1.00
O1346  O     0.19240   0.17536   0.15165   0.00000  Uiso   1.00
O1347  O     0.05907   0.00788   0.36715   0.00000  Uiso   1.00
O1348  O     0.23539   0.11116   0.02751   0.00000  Uiso   1.00
O1349  O     0.19376   0.17355   0.24693   0.00000  Uiso   1.00
O1350  O     0.23471   0.11322   0.37074   0.00000  Uiso   1.00
O1351  O     0.19247   0.17829   0.40359   0.00000  Uiso   1.00
O1352  O     0.05729   0.01106   0.11760   0.00000  Uiso   1.00
O1353  O     0.23596   0.11314   0.27431   0.00000  Uiso   1.00
O1354  O     0.05790   0.00769   0.02285   0.00000  Uiso   1.00
O1355  O     0.05828   0.01170   0.27217   0.00000  Uiso   1.00
O1356  O     0.19440   0.17124   0.49901   0.00000  Uiso   1.00
O1357  O     0.05802   0.01290   0.61796   0.00000  Uiso   1.00
O1358  O     0.23583   0.11465   0.62441   0.00000  Uiso   1.00
O1359  O     0.19316   0.17461   0.65183   0.00000  Uiso   1.00
O1360  O     0.05842   0.01827   0.52448   0.00000  Uiso   1.00
O1361  O     0.23926   0.11127   0.52894   0.00000  Uiso   1.00
O1362  O     0.19216   0.17260   0.74643   0.00000  Uiso   1.00
O1363  O     0.23212   0.11608   0.87233   0.00000  Uiso   1.00
O1364  O     0.19343   0.17917   0.90331   0.00000  Uiso   1.00
O1365  O     0.05947   0.01208   0.77406   0.00000  Uiso   1.00
O1366  O     0.23814   0.11225   0.77735   0.00000  Uiso   1.00
O1367  O     0.05772   0.01288   0.86892   0.00000  Uiso   1.00
O1368  O     0.19377   0.17537   0.99850   0.00000  Uiso   1.00
O1369  O     0.05640   0.33568   0.28033   0.00000  Uiso   1.00
O1370  O     0.05633   0.33612   0.37719   0.00000  Uiso   1.00
O1371  O     0.01315   0.27697   0.25140   0.00000  Uiso   1.00
O1372  O     0.01324   0.27516   0.40794   0.00000  Uiso   1.00
O1373  O     0.05529   0.33762   0.12441   0.00000  Uiso   1.00
O1374  O     0.05569   0.34236   0.02929   0.00000  Uiso   1.00
O1375  O     0.01337   0.27525   0.15718   0.00000  Uiso   1.00
O1376  O     0.05420   0.34007   0.78489   0.00000  Uiso   1.00
O1377  O     0.05242   0.33923   0.88009   0.00000  Uiso   1.00
O1378  O     0.01093   0.27578   0.90641   0.00000  Uiso   1.00
O1379  O     0.01481   0.27918   0.75275   0.00000  Uiso   1.00
O1380  O     0.05400   0.34034   0.53026   0.00000  Uiso   1.00
O1381  O     0.01027   0.27699   0.65483   0.00000  Uiso   1.00
O1382  O     0.05594   0.33799   0.62443   0.00000  Uiso   1.00
O1383  O     0.01260   0.28003   0.50307   0.00000  Uiso   1.00
O1384  O     0.01398   0.27849   0.99989   0.00000  Uiso   1.00
O1385  O     0.23185   0.44953   0.27653   0.00000  Uiso   1.00
O1386  O     0.22975   0.45136   0.12473   0.00000  Uiso   1.00
O1387  O     0.19287   0.51096   0.40461   0.00000  Uiso   1.00
O1388  O     0.19339   0.51450   0.24651   0.00000  Uiso   1.00
O1389  O     0.19053   0.51167   0.15049   0.00000  Uiso   1.00
O1390  O     0.23611   0.44860   0.37191   0.00000  Uiso   1.00
O1391  O     0.23151   0.44963   0.02993   0.00000  Uiso   1.00
O1392  O     0.19031   0.50702   0.00172   0.00000  Uiso   1.00
O1393  O     0.23396   0.44642   0.52821   0.00000  Uiso   1.00
O1394  O     0.18838   0.51339   0.90622   0.00000  Uiso   1.00
O1395  O     0.22943   0.45118   0.88044   0.00000  Uiso   1.00
O1396  O     0.19226   0.50725   0.65323   0.00000  Uiso   1.00
O1397  O     0.23485   0.44334   0.78611   0.00000  Uiso   1.00
O1398  O     0.23787   0.44649   0.62241   0.00000  Uiso   1.00
O1399  O     0.19067   0.50434   0.74907   0.00000  Uiso   1.00
O1400  O     0.19442   0.50879   0.50038   0.00000  Uiso   1.00
O1401  O     0.05888   0.67629   0.36988   0.00000  Uiso   1.00
O1402  O     0.05609   0.68412   0.27590   0.00000  Uiso   1.00
O1403  O     0.01392   0.61683   0.40084   0.00000  Uiso   1.00
O1404  O     0.23171   0.78162   0.27607   0.00000  Uiso   1.00
O1405  O     0.05923   0.67660   0.02469   0.00000  Uiso   1.00
O1406  O     0.23620   0.78515   0.36893   0.00000  Uiso   1.00
O1407  O     0.01582   0.61835   0.15223   0.00000  Uiso   1.00
O1408  O     0.01944   0.62287   0.24599   0.00000  Uiso   1.00
O1409  O     0.23362   0.78502   0.12224   0.00000  Uiso   1.00
O1410  O     0.05775   0.68145   0.11909   0.00000  Uiso   1.00
O1411  O     0.23284   0.78519   0.02608   0.00000  Uiso   1.00
O1412  O     0.01714   0.61896   0.49462   0.00000  Uiso   1.00
O1413  O     0.01833   0.61662   0.90291   0.00000  Uiso   1.00
O1414  O     0.06009   0.68130   0.77442   0.00000  Uiso   1.00
O1415  O     0.23478   0.78543   0.86913   0.00000  Uiso   1.00
O1416  O     0.23467   0.78311   0.77258   0.00000  Uiso   1.00
O1417  O     0.06041   0.67763   0.52512   0.00000  Uiso   1.00
O1418  O     0.05796   0.67423   0.87015   0.00000  Uiso   1.00
O1419  O     0.01740   0.61526   0.65057   0.00000  Uiso   1.00
O1420  O     0.01959   0.61688   0.74660   0.00000  Uiso   1.00
O1421  O     0.23765   0.78533   0.61767   0.00000  Uiso   1.00
O1422  O     0.05920   0.67667   0.62068   0.00000  Uiso   1.00
O1423  O     0.23564   0.78258   0.52100   0.00000  Uiso   1.00
O1424  O     0.01369   0.61790   0.99728   0.00000  Uiso   1.00
O1425  O     0.19556   0.84399   0.49500   0.00000  Uiso   1.00
O1426  O     0.02058   0.94852   0.14920   0.00000  Uiso   1.00
O1427  O     0.19261   0.84829   0.15268   0.00000  Uiso   1.00
O1428  O     0.01269   0.95005   0.24513   0.00000  Uiso   1.00
O1429  O     0.19481   0.84711   0.24750   0.00000  Uiso   1.00
O1430  O     0.01558   0.94874   0.39858   0.00000  Uiso   1.00
O1431  O     0.19610   0.84887   0.39966   0.00000  Uiso   1.00
O1432  O     0.02288   0.95523   0.49250   0.00000  Uiso   1.00
O1433  O     0.01788   0.94917   0.64701   0.00000  Uiso   1.00
O1434  O     0.19417   0.84548   0.64501   0.00000  Uiso   1.00
O1435  O     0.01852   0.95091   0.74213   0.00000  Uiso   1.00
O1436  O     0.19649   0.84412   0.74113   0.00000  Uiso   1.00
O1437  O     0.01933   0.94837   0.89916   0.00000  Uiso   1.00
O1438  O     0.19311   0.84727   0.89920   0.00000  Uiso   1.00
O1439  O     0.19317   0.84351   0.99384   0.00000  Uiso   1.00
O1440  O     0.01616   0.95071   0.99461   0.00000  Uiso   1.00
O1441  O     0.30719   0.15484   0.27315   0.00000  Uiso   1.00
O1442  O     0.30665   0.15343   0.36751   0.00000  Uiso   1.00
O1443  O     0.48701   0.05276   0.37445   0.00000  Uiso   1.00
O1444  O     0.48272   0.05434   0.02757   0.00000  Uiso   1.00
O1445  O     0.30651   0.15428   0.02408   0.00000  Uiso   1.00
O1446  O     0.48937   0.05517   0.12211   0.00000  Uiso   1.00
O1447  O     0.30549   0.15584   0.11914   0.00000  Uiso   1.00
O1448  O     0.48754   0.05534   0.27919   0.00000  Uiso   1.00
O1449  O     0.30674   0.15924   0.77403   0.00000  Uiso   1.00
O1450  O     0.30328   0.15085   0.86932   0.00000  Uiso   1.00
O1451  O     0.48140   0.05158   0.87517   0.00000  Uiso   1.00
O1452  O     0.48634   0.05273   0.52607   0.00000  Uiso   1.00
O1453  O     0.30947   0.15556   0.52505   0.00000  Uiso   1.00
O1454  O     0.48662   0.05149   0.62148   0.00000  Uiso   1.00
O1455  O     0.30556   0.15397   0.61983   0.00000  Uiso   1.00
O1456  O     0.48264   0.05187   0.77807   0.00000  Uiso   1.00
O1457  O     0.26913   0.21594   0.40071   0.00000  Uiso   1.00
O1458  O     0.48776   0.38478   0.37062   0.00000  Uiso   1.00
O1459  O     0.43924   0.32907   0.40065   0.00000  Uiso   1.00
O1460  O     0.26412   0.21552   0.24526   0.00000  Uiso   1.00
O1461  O     0.44053   0.32981   0.24706   0.00000  Uiso   1.00
O1462  O     0.26711   0.21655   0.14883   0.00000  Uiso   1.00
O1463  O     0.44092   0.32213   0.14955   0.00000  Uiso   1.00
O1464  O     0.48496   0.38548   0.02533   0.00000  Uiso   1.00
O1465  O     0.48398   0.38281   0.12010   0.00000  Uiso   1.00
O1466  O     0.48434   0.38786   0.27486   0.00000  Uiso   1.00
O1467  O     0.44154   0.32284   0.49723   0.00000  Uiso   1.00
O1468  O     0.26315   0.21428   0.49597   0.00000  Uiso   1.00
O1469  O     0.26842   0.21651   0.90328   0.00000  Uiso   1.00
O1470  O     0.48048   0.38095   0.77611   0.00000  Uiso   1.00
O1471  O     0.43925   0.32134   0.89927   0.00000  Uiso   1.00
O1472  O     0.25893   0.21743   0.74120   0.00000  Uiso   1.00
O1473  O     0.44195   0.31766   0.74357   0.00000  Uiso   1.00
O1474  O     0.26522   0.21581   0.64612   0.00000  Uiso   1.00
O1475  O     0.44033   0.32509   0.65039   0.00000  Uiso   1.00
O1476  O     0.48013   0.38454   0.52681   0.00000  Uiso   1.00
O1477  O     0.48515   0.38315   0.62009   0.00000  Uiso   1.00
O1478  O     0.48230   0.38141   0.87157   0.00000  Uiso   1.00
O1479  O     0.44167   0.32639   0.99620   0.00000  Uiso   1.00
O1480  O     0.26397   0.21511   0.99799   0.00000  Uiso   1.00
O1481  O     0.30402   0.49114   0.12286   0.00000  Uiso   1.00
O1482  O     0.30656   0.48884   0.37434   0.00000  Uiso   1.00
O1483  O     0.30744   0.49014   0.27936   0.00000  Uiso   1.00
O1484  O     0.30407   0.49104   0.02822   0.00000  Uiso   1.00
O1485  O     0.26650   0.55159   0.24769   0.00000  Uiso   1.00
O1486  O     0.26834   0.55278   0.40669   0.00000  Uiso   1.00
O1487  O     0.26523   0.55281   0.15381   0.00000  Uiso   1.00
O1488  O     0.30642   0.48971   0.62793   0.00000  Uiso   1.00
O1489  O     0.30269   0.49207   0.87648   0.00000  Uiso   1.00
O1490  O     0.26378   0.54918   0.74842   0.00000  Uiso   1.00
O1491  O     0.26374   0.54998   0.65363   0.00000  Uiso   1.00
O1492  O     0.26460   0.55136   0.90197   0.00000  Uiso   1.00
O1493  O     0.30437   0.48970   0.78118   0.00000  Uiso   1.00
O1494  O     0.30691   0.48824   0.53145   0.00000  Uiso   1.00
O1495  O     0.26481   0.55100   0.50357   0.00000  Uiso   1.00
O1496  O     0.26157   0.55053   0.99662   0.00000  Uiso   1.00
O1497  O     0.48734   0.71740   0.36738   0.00000  Uiso   1.00
O1498  O     0.44390   0.65604   0.39809   0.00000  Uiso   1.00
O1499  O     0.44429   0.65882   0.49300   0.00000  Uiso   1.00
O1500  O     0.48294   0.71431   0.27239   0.00000  Uiso   1.00
O1501  O     0.44483   0.65286   0.24475   0.00000  Uiso   1.00
O1502  O     0.44604   0.65221   0.15096   0.00000  Uiso   1.00
O1503  O     0.48230   0.71785   0.02635   0.00000  Uiso   1.00
O1504  O     0.48424   0.71349   0.11998   0.00000  Uiso   1.00
O1505  O     0.47935   0.71548   0.87250   0.00000  Uiso   1.00
O1506  O     0.44127   0.65400   0.90344   0.00000  Uiso   1.00
O1507  O     0.48180   0.71755   0.77673   0.00000  Uiso   1.00
O1508  O     0.43969   0.65840   0.74430   0.00000  Uiso   1.00
O1509  O     0.43930   0.65373   0.64690   0.00000  Uiso   1.00
O1510  O     0.48645   0.71940   0.52273   0.00000  Uiso   1.00
O1511  O     0.48095   0.71538   0.61819   0.00000  Uiso   1.00
O1512  O     0.44325   0.65522   0.99728   0.00000  Uiso   1.00
O1513  O     0.30899   0.82695   0.36911   0.00000  Uiso   1.00
O1514  O     0.44586   0.99372   0.24703   0.00000  Uiso   1.00
O1515  O     0.26454   0.88603   0.24686   0.00000  Uiso   1.00
O1516  O     0.30786   0.82669   0.02400   0.00000  Uiso   1.00
O1517  O     0.44268   0.99620   0.15191   0.00000  Uiso   1.00
O1518  O     0.26663   0.88736   0.14928   0.00000  Uiso   1.00
O1519  O     0.30633   0.82556   0.11884   0.00000  Uiso   1.00
O1520  O     0.30833   0.82485   0.27395   0.00000  Uiso   1.00
O1521  O     0.44684   0.98890   0.40304   0.00000  Uiso   1.00
O1522  O     0.27089   0.88840   0.39841   0.00000  Uiso   1.00
O1523  O     0.26633   0.88559   0.49304   0.00000  Uiso   1.00
O1524  O     0.44641   0.99201   0.49915   0.00000  Uiso   1.00
O1525  O     0.30741   0.82709   0.86805   0.00000  Uiso   1.00
O1526  O     0.44256   0.99331   0.74640   0.00000  Uiso   1.00
O1527  O     0.44423   0.99373   0.65183   0.00000  Uiso   1.00
O1528  O     0.26632   0.88511   0.74320   0.00000  Uiso   1.00
O1529  O     0.30986   0.82451   0.52359   0.00000  Uiso   1.00
O1530  O     0.26557   0.88777   0.64856   0.00000  Uiso   1.00
O1531  O     0.30837   0.82786   0.61982   0.00000  Uiso   1.00
O1532  O     0.30880   0.82480   0.77172   0.00000  Uiso   1.00
O1533  O     0.26836   0.88835   0.89870   0.00000  Uiso   1.00
O1534  O     0.44336   0.98821   0.90300   0.00000  Uiso   1.00
O1535  O     0.44313   0.98923   0.99891   0.00000  Uiso   1.00
O1536  O     0.26345   0.88599   0.99444   0.00000  Uiso   1.00
O1537  O     0.55622   0.01152   0.02498   0.00000  Uiso   1.00
O1538  O     0.55680   0.00795   0.12186   0.00000  Uiso   1.00
O1539  O     0.73477   0.11402   0.12954   0.00000  Uiso   1.00
O1540  O     0.69416   0.17793   0.15888   0.00000  Uiso   1.00
O1541  O     0.73495   0.11216   0.03422   0.00000  Uiso   1.00
O1542  O     0.55919   0.01612   0.27847   0.00000  Uiso   1.00
O1543  O     0.69240   0.17480   0.25316   0.00000  Uiso   1.00
O1544  O     0.73352   0.11807   0.37782   0.00000  Uiso   1.00
O1545  O     0.69197   0.17944   0.40743   0.00000  Uiso   1.00
O1546  O     0.55889   0.01025   0.37218   0.00000  Uiso   1.00
O1547  O     0.73421   0.11490   0.28125   0.00000  Uiso   1.00
O1548  O     0.69116   0.17324   0.00369   0.00000  Uiso   1.00
O1549  O     0.55835   0.01269   0.77952   0.00000  Uiso   1.00
O1550  O     0.73243   0.11737   0.62689   0.00000  Uiso   1.00
O1551  O     0.69047   0.17899   0.65625   0.00000  Uiso   1.00
O1552  O     0.73110   0.11664   0.53132   0.00000  Uiso   1.00
O1553  O     0.55648   0.01314   0.87521   0.00000  Uiso   1.00
O1554  O     0.69042   0.17316   0.75139   0.00000  Uiso   1.00
O1555  O     0.73646   0.11417   0.87803   0.00000  Uiso   1.00
O1556  O     0.69079   0.17508   0.90791   0.00000  Uiso   1.00
O1557  O     0.73324   0.11312   0.78096   0.00000  Uiso   1.00
O1558  O     0.55819   0.01122   0.52929   0.00000  Uiso   1.00
O1559  O     0.55710   0.00785   0.62521   0.00000  Uiso   1.00
O1560  O     0.69100   0.17895   0.50250   0.00000  Uiso   1.00
O1561  O     0.55736   0.34406   0.27374   0.00000  Uiso   1.00
O1562  O     0.55580   0.33970   0.36973   0.00000  Uiso   1.00
O1563  O     0.50782   0.28058   0.40026   0.00000  Uiso   1.00
O1564  O     0.51049   0.28450   0.24652   0.00000  Uiso   1.00
O1565  O     0.55418   0.34108   0.02512   0.00000  Uiso   1.00
O1566  O     0.55569   0.34215   0.12098   0.00000  Uiso   1.00
O1567  O     0.51712   0.28248   0.15249   0.00000  Uiso   1.00
O1568  O     0.51143   0.28329   0.49485   0.00000  Uiso   1.00
O1569  O     0.55400   0.34306   0.77680   0.00000  Uiso   1.00
O1570  O     0.55539   0.33845   0.87074   0.00000  Uiso   1.00
O1571  O     0.51170   0.27661   0.90189   0.00000  Uiso   1.00
O1572  O     0.55689   0.34467   0.52596   0.00000  Uiso   1.00
O1573  O     0.55577   0.33515   0.62142   0.00000  Uiso   1.00
O1574  O     0.51026   0.28239   0.99783   0.00000  Uiso   1.00
O1575  O     0.51122   0.27750   0.65226   0.00000  Uiso   1.00
O1576  O     0.51422   0.28226   0.74622   0.00000  Uiso   1.00
O1577  O     0.73675   0.44437   0.02832   0.00000  Uiso   1.00
O1578  O     0.72941   0.45039   0.37472   0.00000  Uiso   1.00
O1579  O     0.69606   0.50989   0.15379   0.00000  Uiso   1.00
O1580  O     0.73494   0.44804   0.12390   0.00000  Uiso   1.00
O1581  O     0.69639   0.51311   0.40119   0.00000  Uiso   1.00
O1582  O     0.73436   0.44561   0.28088   0.00000  Uiso   1.00
O1583  O     0.69656   0.50959   0.25067   0.00000  Uiso   1.00
O1584  O     0.69689   0.51187   0.49521   0.00000  Uiso   1.00
O1585  O     0.73564   0.44946   0.52796   0.00000  Uiso   1.00
O1586  O     0.69714   0.51767   0.74645   0.00000  Uiso   1.00
O1587  O     0.73406   0.44849   0.86988   0.00000  Uiso   1.00
O1588  O     0.69480   0.51462   0.65073   0.00000  Uiso   1.00
O1589  O     0.69605   0.51107   0.89996   0.00000  Uiso   1.00
O1590  O     0.73157   0.45302   0.62127   0.00000  Uiso   1.00
O1591  O     0.72935   0.45193   0.77503   0.00000  Uiso   1.00
O1592  O     0.69408   0.50831   0.99692   0.00000  Uiso   1.00
O1593  O     0.55554   0.67558   0.02344   0.00000  Uiso   1.00
O1594  O     0.55745   0.67845   0.27233   0.00000  Uiso   1.00
O1595  O     0.73934   0.78076   0.36975   0.00000  Uiso   1.00
O1596  O     0.73567   0.78168   0.27251   0.00000  Uiso   1.00
O1597  O     0.51639   0.61521   0.39937   0.00000  Uiso   1.00
O1598  O     0.55802   0.67715   0.37031   0.00000  Uiso   1.00
O1599  O     0.52147   0.61428   0.14883   0.00000  Uiso   1.00
O1600  O     0.51562   0.61358   0.24473   0.00000  Uiso   1.00
O1601  O     0.73003   0.78799   0.12088   0.00000  Uiso   1.00
O1602  O     0.55553   0.67730   0.11957   0.00000  Uiso   1.00
O1603  O     0.73769   0.78357   0.02443   0.00000  Uiso   1.00
O1604  O     0.51239   0.61347   0.49538   0.00000  Uiso   1.00
O1605  O     0.51485   0.61223   0.89832   0.00000  Uiso   1.00
O1606  O     0.55467   0.67581   0.77572   0.00000  Uiso   1.00
O1607  O     0.55378   0.68036   0.86889   0.00000  Uiso   1.00
O1608  O     0.73418   0.78173   0.77497   0.00000  Uiso   1.00
O1609  O     0.55718   0.67257   0.52445   0.00000  Uiso   1.00
O1610  O     0.73408   0.78643   0.86963   0.00000  Uiso   1.00
O1611  O     0.51715   0.61489   0.65038   0.00000  Uiso   1.00
O1612  O     0.51011   0.61440   0.74571   0.00000  Uiso   1.00
O1613  O     0.73491   0.78268   0.62020   0.00000  Uiso   1.00
O1614  O     0.55411   0.67420   0.62072   0.00000  Uiso   1.00
O1615  O     0.73528   0.78028   0.52497   0.00000  Uiso   1.00
O1616  O     0.51509   0.61562   0.99296   0.00000  Uiso   1.00
O1617  O     0.51226   0.95031   0.15376   0.00000  Uiso   1.00
O1618  O     0.69332   0.85017   0.15054   0.00000  Uiso   1.00
O1619  O     0.51743   0.95526   0.24840   0.00000  Uiso   1.00
O1620  O     0.69421   0.84414   0.24668   0.00000  Uiso   1.00
O1621  O     0.51883   0.94977   0.40385   0.00000  Uiso   1.00
O1622  O     0.69397   0.84283   0.39848   0.00000  Uiso   1.00
O1623  O     0.69715   0.84415   0.49335   0.00000  Uiso   1.00
O1624  O     0.51589   0.95014   0.49904   0.00000  Uiso   1.00
O1625  O     0.51613   0.95184   0.65124   0.00000  Uiso   1.00
O1626  O     0.69284   0.84512   0.64949   0.00000  Uiso   1.00
O1627  O     0.51642   0.95075   0.74854   0.00000  Uiso   1.00
O1628  O     0.69287   0.84350   0.74380   0.00000  Uiso   1.00
O1629  O     0.51867   0.95095   0.90332   0.00000  Uiso   1.00
O1630  O     0.69201   0.84896   0.89995   0.00000  Uiso   1.00
O1631  O     0.51124   0.94929   0.99826   0.00000  Uiso   1.00
O1632  O     0.69356   0.84187   0.99633   0.00000  Uiso   1.00
O1633  O     0.80691   0.15655   0.28039   0.00000  Uiso   1.00
O1634  O     0.80564   0.15756   0.37780   0.00000  Uiso   1.00
O1635  O     0.98758   0.05176   0.36525   0.00000  Uiso   1.00
O1636  O     0.98555   0.05137   0.02123   0.00000  Uiso   1.00
O1637  O     0.80714   0.15498   0.03131   0.00000  Uiso   1.00
O1638  O     0.98459   0.05087   0.11809   0.00000  Uiso   1.00
O1639  O     0.80780   0.15183   0.12770   0.00000  Uiso   1.00
O1640  O     0.98553   0.05488   0.27293   0.00000  Uiso   1.00
O1641  O     0.80370   0.15796   0.78050   0.00000  Uiso   1.00
O1642  O     0.80448   0.15765   0.87515   0.00000  Uiso   1.00
O1643  O     0.98293   0.04925   0.87010   0.00000  Uiso   1.00
O1644  O     0.98098   0.05512   0.52401   0.00000  Uiso   1.00
O1645  O     0.80476   0.15867   0.53203   0.00000  Uiso   1.00
O1646  O     0.98617   0.05431   0.62045   0.00000  Uiso   1.00
O1647  O     0.80329   0.15755   0.62808   0.00000  Uiso   1.00
O1648  O     0.98570   0.05206   0.77548   0.00000  Uiso   1.00
O1649  O     0.76414   0.22009   0.40452   0.00000  Uiso   1.00
O1650  O     0.98517   0.38011   0.28148   0.00000  Uiso   1.00
O1651  O     0.93917   0.31860   0.40623   0.00000  Uiso   1.00
O1652  O     0.76582   0.21534   0.25160   0.00000  Uiso   1.00
O1653  O     0.94102   0.32223   0.25154   0.00000  Uiso   1.00
O1654  O     0.76818   0.21750   0.15698   0.00000  Uiso   1.00
O1655  O     0.93894   0.31887   0.15678   0.00000  Uiso   1.00
O1656  O     0.98122   0.38167   0.03298   0.00000  Uiso   1.00
O1657  O     0.98549   0.37916   0.12952   0.00000  Uiso   1.00
O1658  O     0.98278   0.37913   0.37803   0.00000  Uiso   1.00
O1659  O     0.94161   0.31747   0.00298   0.00000  Uiso   1.00
O1660  O     0.76290   0.21558   0.00262   0.00000  Uiso   1.00
O1661  O     0.98229   0.38121   0.78049   0.00000  Uiso   1.00
O1662  O     0.98078   0.37871   0.87648   0.00000  Uiso   1.00
O1663  O     0.76276   0.21993   0.90714   0.00000  Uiso   1.00
O1664  O     0.76219   0.21874   0.75186   0.00000  Uiso   1.00
O1665  O     0.94074   0.32275   0.75130   0.00000  Uiso   1.00
O1666  O     0.76527   0.22036   0.65661   0.00000  Uiso   1.00
O1667  O     0.94219   0.32259   0.65545   0.00000  Uiso   1.00
O1668  O     0.98297   0.38378   0.53106   0.00000  Uiso   1.00
O1669  O     0.98709   0.38083   0.62679   0.00000  Uiso   1.00
O1670  O     0.94018   0.31737   0.90607   0.00000  Uiso   1.00
O1671  O     0.76128   0.21976   0.50129   0.00000  Uiso   1.00
O1672  O     0.93999   0.32161   0.50215   0.00000  Uiso   1.00
O1673  O     0.80783   0.48434   0.02775   0.00000  Uiso   1.00
O1674  O     0.80850   0.48418   0.12367   0.00000  Uiso   1.00
O1675  O     0.80653   0.48202   0.37016   0.00000  Uiso   1.00
O1676  O     0.80962   0.48504   0.27554   0.00000  Uiso   1.00
O1677  O     0.76907   0.54919   0.15184   0.00000  Uiso   1.00
O1678  O     0.77537   0.54881   0.39906   0.00000  Uiso   1.00
O1679  O     0.77183   0.54594   0.24640   0.00000  Uiso   1.00
O1680  O     0.76658   0.55210   0.49153   0.00000  Uiso   1.00
O1681  O     0.80637   0.48995   0.62382   0.00000  Uiso   1.00
O1682  O     0.77137   0.55381   0.65212   0.00000  Uiso   1.00
O1683  O     0.80886   0.48901   0.87396   0.00000  Uiso   1.00
O1684  O     0.76994   0.55145   0.74767   0.00000  Uiso   1.00
O1685  O     0.77396   0.55068   0.90346   0.00000  Uiso   1.00
O1686  O     0.80979   0.49361   0.52853   0.00000  Uiso   1.00
O1687  O     0.80758   0.48600   0.77696   0.00000  Uiso   1.00
O1688  O     0.76668   0.54802   0.99740   0.00000  Uiso   1.00
O1689  O     0.98779   0.72207   0.36984   0.00000  Uiso   1.00
O1690  O     0.94425   0.66391   0.39837   0.00000  Uiso   1.00
O1691  O     0.98509   0.72379   0.27404   0.00000  Uiso   1.00
O1692  O     0.94471   0.65897   0.24692   0.00000  Uiso   1.00
O1693  O     0.94376   0.65993   0.15097   0.00000  Uiso   1.00
O1694  O     0.98510   0.72109   0.02533   0.00000  Uiso   1.00
O1695  O     0.98629   0.72341   0.12244   0.00000  Uiso   1.00
O1696  O     0.94631   0.66063   0.49627   0.00000  Uiso   1.00
O1697  O     0.98902   0.71840   0.86976   0.00000  Uiso   1.00
O1698  O     0.94255   0.65779   0.90049   0.00000  Uiso   1.00
O1699  O     0.98410   0.72050   0.77327   0.00000  Uiso   1.00
O1700  O     0.94798   0.65555   0.74471   0.00000  Uiso   1.00
O1701  O     0.94420   0.65658   0.64918   0.00000  Uiso   1.00
O1702  O     0.98912   0.72086   0.52830   0.00000  Uiso   1.00
O1703  O     0.98527   0.71833   0.62208   0.00000  Uiso   1.00
O1704  O     0.94326   0.66181   0.99737   0.00000  Uiso   1.00
O1705  O     0.80740   0.82486   0.36941   0.00000  Uiso   1.00
O1706  O     0.94393   0.98933   0.15071   0.00000  Uiso   1.00
O1707  O     0.94331   0.99295   0.39710   0.00000  Uiso   1.00
O1708  O     0.76538   0.88483   0.24480   0.00000  Uiso   1.00
O1709  O     0.80638   0.83001   0.02028   0.00000  Uiso   1.00
O1710  O     0.76782   0.88947   0.14942   0.00000  Uiso   1.00
O1711  O     0.94247   0.99482   0.24507   0.00000  Uiso   1.00
O1712  O     0.80439   0.82579   0.11707   0.00000  Uiso   1.00
O1713  O     0.80712   0.82425   0.27275   0.00000  Uiso   1.00
O1714  O     0.76776   0.88648   0.40118   0.00000  Uiso   1.00
O1715  O     0.94883   0.98734   0.49236   0.00000  Uiso   1.00
O1716  O     0.76868   0.88288   0.49674   0.00000  Uiso   1.00
O1717  O     0.80575   0.82502   0.87050   0.00000  Uiso   1.00
O1718  O     0.94496   0.99118   0.64844   0.00000  Uiso   1.00
O1719  O     0.76377   0.88577   0.74398   0.00000  Uiso   1.00
O1720  O     0.80891   0.82230   0.52395   0.00000  Uiso   1.00
O1721  O     0.76950   0.88595   0.64929   0.00000  Uiso   1.00
O1722  O     0.80560   0.82266   0.61846   0.00000  Uiso   1.00
O1723  O     0.80879   0.82432   0.77547   0.00000  Uiso   1.00
O1724  O     0.94615   0.98955   0.74290   0.00000  Uiso   1.00
O1725  O     0.76996   0.88705   0.89772   0.00000  Uiso   1.00
O1726  O     0.94438   0.98699   0.89815   0.00000  Uiso   1.00
O1727  O     0.76216   0.88798   0.99050   0.00000  Uiso   1.00
O1728  O     0.94520   0.98978   0.99302   0.00000  Uiso   1.00
O1729  O     0.24041   0.18115   0.32377   0.00000  Uiso   1.00
O1730  O     0.00951   0.01649   0.19600   0.00000  Uiso   1.00
O1731  O     0.23935   0.17993   0.07422   0.00000  Uiso   1.00
O1732  O     0.01370   0.01850   0.44460   0.00000  Uiso   1.00
O1733  O     0.23980   0.18330   0.82307   0.00000  Uiso   1.00
O1734  O     0.01302   0.01661   0.69569   0.00000  Uiso   1.00
O1735  O     0.24153   0.18027   0.57473   0.00000  Uiso   1.00
O1736  O     0.00977   0.01618   0.94573   0.00000  Uiso   1.00
O1737  O     0.00673   0.34604   0.45374   0.00000  Uiso   1.00
O1738  O     0.00929   0.34292   0.20305   0.00000  Uiso   1.00
O1739  O     0.00543   0.34338   0.95182   0.00000  Uiso   1.00
O1740  O     0.01076   0.34518   0.70368   0.00000  Uiso   1.00
O1741  O     0.24059   0.51770   0.32497   0.00000  Uiso   1.00
O1742  O     0.23756   0.51837   0.07401   0.00000  Uiso   1.00
O1743  O     0.23791   0.51635   0.82756   0.00000  Uiso   1.00
O1744  O     0.23948   0.51182   0.57850   0.00000  Uiso   1.00
O1745  O     0.01289   0.68627   0.44763   0.00000  Uiso   1.00
O1746  O     0.01014   0.68781   0.19923   0.00000  Uiso   1.00
O1747  O     0.01130   0.68397   0.94860   0.00000  Uiso   1.00
O1748  O     0.01376   0.68403   0.69792   0.00000  Uiso   1.00
O1749  O     0.24215   0.85105   0.32106   0.00000  Uiso   1.00
O1750  O     0.23985   0.85212   0.07288   0.00000  Uiso   1.00
O1751  O     0.24308   0.85065   0.81856   0.00000  Uiso   1.00
O1752  O     0.24204   0.85029   0.57108   0.00000  Uiso   1.00
O1753  O     0.26036   0.14910   0.44896   0.00000  Uiso   1.00
O1754  O     0.26043   0.14814   0.19640   0.00000  Uiso   1.00
O1755  O     0.25762   0.14791   0.94909   0.00000  Uiso   1.00
O1756  O     0.26016   0.14913   0.69846   0.00000  Uiso   1.00
O1757  O     0.48742   0.32065   0.32231   0.00000  Uiso   1.00
O1758  O     0.48758   0.31642   0.07406   0.00000  Uiso   1.00
O1759  O     0.48704   0.31329   0.82312   0.00000  Uiso   1.00
O1760  O     0.48935   0.31495   0.57317   0.00000  Uiso   1.00
O1761  O     0.25971   0.48333   0.45086   0.00000  Uiso   1.00
O1762  O     0.25814   0.48681   0.20226   0.00000  Uiso   1.00
O1763  O     0.25595   0.48450   0.95306   0.00000  Uiso   1.00
O1764  O     0.26038   0.47955   0.70374   0.00000  Uiso   1.00
O1765  O     0.49133   0.64860   0.07146   0.00000  Uiso   1.00
O1766  O     0.49101   0.65131   0.32092   0.00000  Uiso   1.00
O1767  O     0.48496   0.64978   0.82442   0.00000  Uiso   1.00
O1768  O     0.49084   0.64870   0.57229   0.00000  Uiso   1.00
O1769  O     0.26296   0.82099   0.44410   0.00000  Uiso   1.00
O1770  O     0.49049   0.98573   0.07283   0.00000  Uiso   1.00
O1771  O     0.26169   0.81879   0.19681   0.00000  Uiso   1.00
O1772  O     0.49418   0.98777   0.32532   0.00000  Uiso   1.00
O1773  O     0.25852   0.81950   0.94653   0.00000  Uiso   1.00
O1774  O     0.48925   0.98515   0.57530   0.00000  Uiso   1.00
O1775  O     0.26228   0.81800   0.69653   0.00000  Uiso   1.00
O1776  O     0.49033   0.98571   0.82575   0.00000  Uiso   1.00
O1777  O     0.74067   0.18329   0.32737   0.00000  Uiso   1.00
O1778  O     0.51084   0.01934   0.19981   0.00000  Uiso   1.00
O1779  O     0.73883   0.17905   0.07839   0.00000  Uiso   1.00
O1780  O     0.51271   0.01543   0.45124   0.00000  Uiso   1.00
O1781  O     0.73773   0.18074   0.82964   0.00000  Uiso   1.00
O1782  O     0.51162   0.01711   0.70058   0.00000  Uiso   1.00
O1783  O     0.73819   0.18461   0.57916   0.00000  Uiso   1.00
O1784  O     0.51102   0.01618   0.95015   0.00000  Uiso   1.00
O1785  O     0.50754   0.34881   0.44849   0.00000  Uiso   1.00
O1786  O     0.50767   0.35089   0.19750   0.00000  Uiso   1.00
O1787  O     0.50530   0.34584   0.94690   0.00000  Uiso   1.00
O1788  O     0.50742   0.34603   0.69909   0.00000  Uiso   1.00
O1789  O     0.74474   0.51333   0.32540   0.00000  Uiso   1.00
O1790  O     0.74136   0.51053   0.07422   0.00000  Uiso   1.00
O1791  O     0.74373   0.51771   0.82305   0.00000  Uiso   1.00
O1792  O     0.74305   0.52004   0.57221   0.00000  Uiso   1.00
O1793  O     0.51095   0.68111   0.44649   0.00000  Uiso   1.00
O1794  O     0.50933   0.68080   0.19580   0.00000  Uiso   1.00
O1795  O     0.50872   0.68050   0.94878   0.00000  Uiso   1.00
O1796  O     0.50564   0.68190   0.69804   0.00000  Uiso   1.00
O1797  O     0.74155   0.84917   0.32313   0.00000  Uiso   1.00
O1798  O     0.74167   0.85417   0.07204   0.00000  Uiso   1.00
O1799  O     0.74046   0.85242   0.82269   0.00000  Uiso   1.00
O1800  O     0.74084   0.84686   0.57043   0.00000  Uiso   1.00
O1801  O     0.76037   0.15470   0.45391   0.00000  Uiso   1.00
O1802  O     0.76107   0.15111   0.20536   0.00000  Uiso   1.00
O1803  O     0.75986   0.15062   0.95210   0.00000  Uiso   1.00
O1804  O     0.75861   0.15061   0.70222   0.00000  Uiso   1.00
O1805  O     0.98793   0.31153   0.32804   0.00000  Uiso   1.00
O1806  O     0.98625   0.31356   0.08023   0.00000  Uiso   1.00
O1807  O     0.98751   0.31334   0.82766   0.00000  Uiso   1.00
O1808  O     0.98706   0.31561   0.57891   0.00000  Uiso   1.00
O1809  O     0.76384   0.48263   0.44912   0.00000  Uiso   1.00
O1810  O     0.75918   0.48035   0.19912   0.00000  Uiso   1.00
O1811  O     0.76177   0.48179   0.95017   0.00000  Uiso   1.00
O1812  O     0.75938   0.48524   0.69973   0.00000  Uiso   1.00
O1813  O     0.99046   0.65427   0.32287   0.00000  Uiso   1.00
O1814  O     0.98940   0.65615   0.07361   0.00000  Uiso   1.00
O1815  O     0.99177   0.65138   0.82360   0.00000  Uiso   1.00
O1816  O     0.99254   0.65287   0.57265   0.00000  Uiso   1.00
O1817  O     0.76253   0.81970   0.44721   0.00000  Uiso   1.00
O1818  O     0.99031   0.98310   0.07116   0.00000  Uiso   1.00
O1819  O     0.76103   0.82222   0.19611   0.00000  Uiso   1.00
O1820  O     0.99004   0.98481   0.32002   0.00000  Uiso   1.00
O1821  O     0.75877   0.82090   0.94642   0.00000  Uiso   1.00
O1822  O     0.99155   0.98865   0.56847   0.00000  Uiso   1.00
O1823  O     0.76152   0.81969   0.69710   0.00000  Uiso   1.00
O1824  O     0.99239   0.98232   0.81971   0.00000  Uiso   1.00
