data_final_Cl-Ni-SABVOH01
_audit_creation_date              2022-12-15
_audit_creation_method            'Materials Studio'
_symmetry_space_group_name_H-M    'P1'
_symmetry_Int_Tables_number       1
_symmetry_cell_setting            triclinic
loop_
_symmetry_equiv_pos_as_xyz
  x,y,z
_cell_length_a                    33.4256
_cell_length_b                    36.1242
_cell_length_c                    25.8638
_cell_angle_alpha                 90.0000
_cell_angle_beta                  90.0000
_cell_angle_gamma                 90.0000
loop_
_atom_site_label
_atom_site_type_symbol
_atom_site_fract_x
_atom_site_fract_y
_atom_site_fract_z
_atom_site_U_iso_or_equiv
_atom_site_adp_type
_atom_site_occupancy
Ni1    Ni    0.24937   0.16773   0.23483   0.00000  Uiso   1.00
Ni2    Ni    0.00150   0.00115   0.23232   0.00000  Uiso   1.00
Ni3    Ni    0.24829   0.16832   0.48625   0.00000  Uiso   1.00
Ni4    Ni    0.24932   0.17044   0.36059   0.00000  Uiso   1.00
Ni5    Ni    0.24772   0.16936   0.86137   0.00000  Uiso   1.00
Ni6    Ni    0.24683   0.16924   0.98591   0.00000  Uiso   1.00
Ni7    Ni    0.24662   0.17089   0.61060   0.00000  Uiso   1.00
Ni8    Ni    0.00140   0.00109   0.73302   0.00000  Uiso   1.00
Ni9    Ni    0.24597   0.17033   0.73541   0.00000  Uiso   1.00
Ni10   Ni    0.00138   0.00256   0.85802   0.00000  Uiso   1.00
Ni11   Ni    0.00090   0.33171   0.36405   0.00000  Uiso   1.00
Ni12   Ni    0.00264   0.33471   0.11369   0.00000  Uiso   1.00
Ni13   Ni    0.00120   0.33424   0.23897   0.00000  Uiso   1.00
Ni14   Ni    0.00138   0.33294   0.99052   0.00000  Uiso   1.00
Ni15   Ni    0.00027   0.66418   0.48823   0.00000  Uiso   1.00
Ni16   Ni    0.00058   0.66256   0.86087   0.00000  Uiso   1.00
Ni17   Ni    0.24879   0.83576   0.23172   0.00000  Uiso   1.00
Ni18   Ni    0.00258   0.99918   0.48161   0.00000  Uiso   1.00
Ni19   Ni    0.00109   0.99995   0.35686   0.00000  Uiso   1.00
Ni20   Ni    0.00228   0.99955   0.60652   0.00000  Uiso   1.00
Ni21   Ni    0.24954   0.83389   0.85746   0.00000  Uiso   1.00
Ni22   Ni    0.24998   0.83501   0.98261   0.00000  Uiso   1.00
Ni23   Ni    0.49887   0.00338   0.23170   0.00000  Uiso   1.00
Ni24   Ni    0.49817   0.00083   0.48072   0.00000  Uiso   1.00
Ni25   Ni    0.49938   0.00338   0.10589   0.00000  Uiso   1.00
Ni26   Ni    0.49913   0.00097   0.35679   0.00000  Uiso   1.00
Ni27   Ni    0.25048   0.16525   0.11071   0.00000  Uiso   1.00
Ni28   Ni    0.49911   0.00026   0.60651   0.00000  Uiso   1.00
Ni29   Ni    0.49787   0.33101   0.23948   0.00000  Uiso   1.00
Ni30   Ni    0.49984   0.33373   0.36485   0.00000  Uiso   1.00
Ni31   Ni    0.49907   0.33103   0.48941   0.00000  Uiso   1.00
Ni32   Ni    0.49849   0.33199   0.11370   0.00000  Uiso   1.00
Ni33   Ni    0.49863   0.33164   0.61341   0.00000  Uiso   1.00
Ni34   Ni    0.49820   0.33188   0.73831   0.00000  Uiso   1.00
Ni35   Ni    0.49837   0.33337   0.86386   0.00000  Uiso   1.00
Ni36   Ni    0.49814   0.33302   0.98922   0.00000  Uiso   1.00
Ni37   Ni    0.25115   0.49760   0.11498   0.00000  Uiso   1.00
Ni38   Ni    0.25116   0.49896   0.48971   0.00000  Uiso   1.00
Ni39   Ni    0.25118   0.49971   0.36373   0.00000  Uiso   1.00
Ni40   Ni    0.25088   0.49836   0.23912   0.00000  Uiso   1.00
Ni41   Ni    0.25120   0.49929   0.86534   0.00000  Uiso   1.00
Ni42   Ni    0.25058   0.50048   0.74063   0.00000  Uiso   1.00
Ni43   Ni    0.25166   0.49627   0.98942   0.00000  Uiso   1.00
Ni44   Ni    0.25217   0.49929   0.61535   0.00000  Uiso   1.00
Ni45   Ni    0.49995   0.66426   0.48141   0.00000  Uiso   1.00
Ni46   Ni    0.49831   0.66739   0.73027   0.00000  Uiso   1.00
Ni47   Ni    0.49947   0.66556   0.60605   0.00000  Uiso   1.00
Ni48   Ni    0.25078   0.83591   0.10641   0.00000  Uiso   1.00
Ni49   Ni    0.25059   0.83286   0.48174   0.00000  Uiso   1.00
Ni50   Ni    0.25063   0.83261   0.35633   0.00000  Uiso   1.00
Ni51   Ni    0.25146   0.83382   0.60671   0.00000  Uiso   1.00
Ni52   Ni    0.25083   0.83187   0.73230   0.00000  Uiso   1.00
Ni53   Ni    0.49924   0.99826   0.73226   0.00000  Uiso   1.00
Ni54   Ni    0.74938   0.16840   0.35619   0.00000  Uiso   1.00
Ni55   Ni    0.74965   0.16933   0.23122   0.00000  Uiso   1.00
Ni56   Ni    0.74919   0.16922   0.98007   0.00000  Uiso   1.00
Ni57   Ni    0.74886   0.16769   0.73195   0.00000  Uiso   1.00
Ni58   Ni    0.74938   0.17025   0.85532   0.00000  Uiso   1.00
Ni59   Ni    0.74930   0.16777   0.60592   0.00000  Uiso   1.00
Ni60   Ni    0.50211   0.00012   0.85643   0.00000  Uiso   1.00
Ni61   Ni    0.74837   0.49819   0.48840   0.00000  Uiso   1.00
Ni62   Ni    0.74751   0.49870   0.23582   0.00000  Uiso   1.00
Ni63   Ni    0.74911   0.49939   0.11052   0.00000  Uiso   1.00
Ni64   Ni    0.74906   0.49946   0.36179   0.00000  Uiso   1.00
Ni65   Ni    0.74629   0.50070   0.74035   0.00000  Uiso   1.00
Ni66   Ni    0.74648   0.50034   0.86380   0.00000  Uiso   1.00
Ni67   Ni    0.74783   0.49939   0.61422   0.00000  Uiso   1.00
Ni68   Ni    0.74936   0.50096   0.98664   0.00000  Uiso   1.00
Ni69   Ni    0.50159   0.66605   0.10470   0.00000  Uiso   1.00
Ni70   Ni    0.50068   0.66438   0.35738   0.00000  Uiso   1.00
Ni71   Ni    0.50123   0.66377   0.23081   0.00000  Uiso   1.00
Ni72   Ni    0.50094   0.66587   0.85521   0.00000  Uiso   1.00
Ni73   Ni    0.50010   0.66686   0.98031   0.00000  Uiso   1.00
Ni74   Ni    0.74867   0.83421   0.48102   0.00000  Uiso   1.00
Ni75   Ni    0.74900   0.83518   0.35719   0.00000  Uiso   1.00
Ni76   Ni    0.74865   0.83610   0.23299   0.00000  Uiso   1.00
Ni77   Ni    0.74957   0.83360   0.10612   0.00000  Uiso   1.00
Ni78   Ni    0.50214   0.99906   0.98116   0.00000  Uiso   1.00
Ni79   Ni    0.75233   0.16796   0.48046   0.00000  Uiso   1.00
Ni80   Ni    0.75057   0.17017   0.10575   0.00000  Uiso   1.00
Ni81   Ni    0.99981   0.33255   0.49125   0.00000  Uiso   1.00
Ni82   Ni    0.99965   0.33529   0.86551   0.00000  Uiso   1.00
Ni83   Ni    0.99892   0.33512   0.61619   0.00000  Uiso   1.00
Ni84   Ni    0.99628   0.33842   0.74014   0.00000  Uiso   1.00
Ni85   Ni    0.99757   0.66169   0.23842   0.00000  Uiso   1.00
Ni86   Ni    0.99892   0.66294   0.11328   0.00000  Uiso   1.00
Ni87   Ni    0.99975   0.66449   0.36319   0.00000  Uiso   1.00
Ni88   Ni    0.99972   0.66480   0.73597   0.00000  Uiso   1.00
Ni89   Ni    0.99929   0.66416   0.61289   0.00000  Uiso   1.00
Ni90   Ni    0.99993   0.66269   0.98689   0.00000  Uiso   1.00
Ni91   Ni    0.99907   0.99965   0.10713   0.00000  Uiso   1.00
Ni92   Ni    0.99834   0.99867   0.98333   0.00000  Uiso   1.00
Ni93   Ni    0.75017   0.83158   0.72765   0.00000  Uiso   1.00
Ni94   Ni    0.75119   0.83092   0.85328   0.00000  Uiso   1.00
Ni95   Ni    0.75032   0.83277   0.98116   0.00000  Uiso   1.00
Ni96   Ni    0.75084   0.83439   0.60556   0.00000  Uiso   1.00
Cl97   Cl    0.12106   0.02650   0.45165   0.00000  Uiso   1.00
Cl98   Cl    0.13358   0.19449   0.32962   0.00000  Uiso   1.00
Cl99   Cl    0.12264   0.02038   0.20137   0.00000  Uiso   1.00
Cl100  Cl    0.13697   0.19033   0.07991   0.00000  Uiso   1.00
Cl101  Cl    0.12290   0.01403   0.96193   0.00000  Uiso   1.00
Cl102  Cl    0.12311   0.02734   0.69899   0.00000  Uiso   1.00
Cl103  Cl    0.12343   0.19122   0.57403   0.00000  Uiso   1.00
Cl104  Cl    0.13488   0.18872   0.82836   0.00000  Uiso   1.00
Cl105  Cl    0.12404   0.35472   0.20691   0.00000  Uiso   1.00
Cl106  Cl    0.12139   0.35191   0.45922   0.00000  Uiso   1.00
Cl107  Cl    0.11662   0.35955   0.69761   0.00000  Uiso   1.00
Cl108  Cl    0.12179   0.35382   0.95244   0.00000  Uiso   1.00
Cl109  Cl    0.12990   0.52063   0.07566   0.00000  Uiso   1.00
Cl110  Cl    0.13077   0.52035   0.32656   0.00000  Uiso   1.00
Cl111  Cl    0.13126   0.52457   0.57635   0.00000  Uiso   1.00
Cl112  Cl    0.12485   0.51056   0.83794   0.00000  Uiso   1.00
Cl113  Cl    0.11356   0.69016   0.20086   0.00000  Uiso   1.00
Cl114  Cl    0.12736   0.67710   0.46106   0.00000  Uiso   1.00
Cl115  Cl    0.12129   0.68257   0.70283   0.00000  Uiso   1.00
Cl116  Cl    0.12178   0.68514   0.95055   0.00000  Uiso   1.00
Cl117  Cl    0.13624   0.85651   0.07851   0.00000  Uiso   1.00
Cl118  Cl    0.14790   0.86510   0.31669   0.00000  Uiso   1.00
Cl119  Cl    0.13445   0.85462   0.58155   0.00000  Uiso   1.00
Cl120  Cl    0.13820   0.86045   0.82298   0.00000  Uiso   1.00
Cl121  Cl    0.36115   0.13930   0.19417   0.00000  Uiso   1.00
Cl122  Cl    0.36577   0.14532   0.45579   0.00000  Uiso   1.00
Cl123  Cl    0.36701   0.13864   0.69916   0.00000  Uiso   1.00
Cl124  Cl    0.36864   0.14899   0.94691   0.00000  Uiso   1.00
Cl125  Cl    0.38333   0.30722   0.07067   0.00000  Uiso   1.00
Cl126  Cl    0.38448   0.31089   0.32888   0.00000  Uiso   1.00
Cl127  Cl    0.37470   0.31464   0.57263   0.00000  Uiso   1.00
Cl128  Cl    0.38379   0.30992   0.82532   0.00000  Uiso   1.00
Cl129  Cl    0.35753   0.46888   0.20176   0.00000  Uiso   1.00
Cl130  Cl    0.37104   0.48109   0.46482   0.00000  Uiso   1.00
Cl131  Cl    0.36718   0.48163   0.70546   0.00000  Uiso   1.00
Cl132  Cl    0.36864   0.47618   0.96318   0.00000  Uiso   1.00
Cl133  Cl    0.37908   0.64709   0.07987   0.00000  Uiso   1.00
Cl134  Cl    0.39495   0.62565   0.31784   0.00000  Uiso   1.00
Cl135  Cl    0.38099   0.64445   0.57810   0.00000  Uiso   1.00
Cl136  Cl    0.38801   0.63869   0.82825   0.00000  Uiso   1.00
Cl137  Cl    0.38163   0.97831   0.07554   0.00000  Uiso   1.00
Cl138  Cl    0.38692   0.97335   0.32437   0.00000  Uiso   1.00
Cl139  Cl    0.36757   0.80846   0.44395   0.00000  Uiso   1.00
Cl140  Cl    0.36274   0.80718   0.19379   0.00000  Uiso   1.00
Cl141  Cl    0.38283   0.98126   0.58175   0.00000  Uiso   1.00
Cl142  Cl    0.39183   0.96861   0.82123   0.00000  Uiso   1.00
Cl143  Cl    0.36873   0.80670   0.93914   0.00000  Uiso   1.00
Cl144  Cl    0.36973   0.80898   0.69870   0.00000  Uiso   1.00
Cl145  Cl    0.61106   0.03140   0.44117   0.00000  Uiso   1.00
Cl146  Cl    0.62071   0.01989   0.20202   0.00000  Uiso   1.00
Cl147  Cl    0.63043   0.18836   0.07857   0.00000  Uiso   1.00
Cl148  Cl    0.63364   0.18911   0.32897   0.00000  Uiso   1.00
Cl149  Cl    0.62308   0.02350   0.95358   0.00000  Uiso   1.00
Cl150  Cl    0.63323   0.19367   0.57674   0.00000  Uiso   1.00
Cl151  Cl    0.61260   0.03390   0.68866   0.00000  Uiso   1.00
Cl152  Cl    0.62696   0.19118   0.83195   0.00000  Uiso   1.00
Cl153  Cl    0.61444   0.35193   0.21048   0.00000  Uiso   1.00
Cl154  Cl    0.60880   0.35870   0.45387   0.00000  Uiso   1.00
Cl155  Cl    0.61173   0.35455   0.70920   0.00000  Uiso   1.00
Cl156  Cl    0.61560   0.35918   0.95587   0.00000  Uiso   1.00
Cl157  Cl    0.63867   0.52181   0.07400   0.00000  Uiso   1.00
Cl158  Cl    0.63703   0.52703   0.32089   0.00000  Uiso   1.00
Cl159  Cl    0.63465   0.52426   0.57433   0.00000  Uiso   1.00
Cl160  Cl    0.63575   0.53045   0.82576   0.00000  Uiso   1.00
Cl161  Cl    0.62074   0.69305   0.19389   0.00000  Uiso   1.00
Cl162  Cl    0.62686   0.67856   0.46135   0.00000  Uiso   1.00
Cl163  Cl    0.62202   0.68629   0.69466   0.00000  Uiso   1.00
Cl164  Cl    0.62568   0.68571   0.95020   0.00000  Uiso   1.00
Cl165  Cl    0.63560   0.86008   0.06957   0.00000  Uiso   1.00
Cl166  Cl    0.63682   0.85904   0.32484   0.00000  Uiso   1.00
Cl167  Cl    0.63828   0.86359   0.56692   0.00000  Uiso   1.00
Cl168  Cl    0.63839   0.85985   0.81709   0.00000  Uiso   1.00
Cl169  Cl    0.86946   0.14148   0.19507   0.00000  Uiso   1.00
Cl170  Cl    0.87453   0.14769   0.44979   0.00000  Uiso   1.00
Cl171  Cl    0.87125   0.15445   0.70341   0.00000  Uiso   1.00
Cl172  Cl    0.87642   0.15083   0.95374   0.00000  Uiso   1.00
Cl173  Cl    0.89054   0.31674   0.08093   0.00000  Uiso   1.00
Cl174  Cl    0.88808   0.30782   0.32501   0.00000  Uiso   1.00
Cl175  Cl    0.88275   0.31606   0.57626   0.00000  Uiso   1.00
Cl176  Cl    0.88449   0.31565   0.83054   0.00000  Uiso   1.00
Cl177  Cl    0.87245   0.48061   0.20747   0.00000  Uiso   1.00
Cl178  Cl    0.86994   0.47979   0.46050   0.00000  Uiso   1.00
Cl179  Cl    0.86768   0.47995   0.70396   0.00000  Uiso   1.00
Cl180  Cl    0.86952   0.47075   0.94733   0.00000  Uiso   1.00
Cl181  Cl    0.88864   0.63135   0.07731   0.00000  Uiso   1.00
Cl182  Cl    0.88831   0.63758   0.32715   0.00000  Uiso   1.00
Cl183  Cl    0.88528   0.64023   0.57547   0.00000  Uiso   1.00
Cl184  Cl    0.88365   0.64023   0.82957   0.00000  Uiso   1.00
Cl185  Cl    0.88841   0.97258   0.07251   0.00000  Uiso   1.00
Cl186  Cl    0.88884   0.97443   0.32458   0.00000  Uiso   1.00
Cl187  Cl    0.87553   0.81308   0.44896   0.00000  Uiso   1.00
Cl188  Cl    0.86745   0.80877   0.20250   0.00000  Uiso   1.00
Cl189  Cl    0.88559   0.98311   0.58832   0.00000  Uiso   1.00
Cl190  Cl    0.89162   0.96991   0.81574   0.00000  Uiso   1.00
Cl191  Cl    0.87670   0.81853   0.96406   0.00000  Uiso   1.00
Cl192  Cl    0.86838   0.80091   0.69066   0.00000  Uiso   1.00
H193   H     0.08187   0.08164   0.11778   0.00000  Uiso   1.00
H194   H     0.14179   0.11823   0.11629   0.00000  Uiso   1.00
H195   H     0.18699   0.06881   0.23127   0.00000  Uiso   1.00
H196   H     0.08423   0.07956   0.36986   0.00000  Uiso   1.00
H197   H     0.14622   0.11109   0.37636   0.00000  Uiso   1.00
H198   H     0.18956   0.06845   0.48072   0.00000  Uiso   1.00
H199   H     0.23489   0.12470   0.42282   0.00000  Uiso   1.00
H200   H     0.08405   0.07957   0.61970   0.00000  Uiso   1.00
H201   H     0.14474   0.11937   0.62493   0.00000  Uiso   1.00
H202   H     0.18068   0.07681   0.72262   0.00000  Uiso   1.00
H203   H     0.08531   0.08088   0.86819   0.00000  Uiso   1.00
H204   H     0.14384   0.11673   0.87556   0.00000  Uiso   1.00
H205   H     0.18922   0.05268   0.99369   0.00000  Uiso   1.00
H206   H     0.02782   0.03991   0.92416   0.00000  Uiso   1.00
H207   H     0.07588   0.23992   0.09666   0.00000  Uiso   1.00
H208   H     0.16508   0.24424   0.25090   0.00000  Uiso   1.00
H209   H     0.09971   0.27849   0.25165   0.00000  Uiso   1.00
H210   H     0.06880   0.23528   0.35585   0.00000  Uiso   1.00
H211   H     0.02553   0.37278   0.42959   0.00000  Uiso   1.00
H212   H     0.00759   0.28545   0.30206   0.00000  Uiso   1.00
H213   H     0.01302   0.28736   0.05267   0.00000  Uiso   1.00
H214   H     0.16368   0.24455   0.49876   0.00000  Uiso   1.00
H215   H     0.09386   0.27642   0.00290   0.00000  Uiso   1.00
H216   H     0.15811   0.24477   0.00355   0.00000  Uiso   1.00
H217   H     0.06057   0.23440   0.60681   0.00000  Uiso   1.00
H218   H     0.15728   0.24439   0.75207   0.00000  Uiso   1.00
H219   H     0.09469   0.27969   0.75337   0.00000  Uiso   1.00
H220   H     0.06636   0.23453   0.85166   0.00000  Uiso   1.00
H221   H     0.22207   0.21315   0.54777   0.00000  Uiso   1.00
H222   H     0.01108   0.28784   0.55436   0.00000  Uiso   1.00
H223   H     0.10029   0.27457   0.50847   0.00000  Uiso   1.00
H224   H     0.18673   0.39976   0.97902   0.00000  Uiso   1.00
H225   H     0.07435   0.57653   0.09428   0.00000  Uiso   1.00
H226   H     0.15060   0.44270   0.12596   0.00000  Uiso   1.00
H227   H     0.08798   0.41294   0.12028   0.00000  Uiso   1.00
H228   H     0.07098   0.57202   0.34641   0.00000  Uiso   1.00
H229   H     0.15173   0.44272   0.38168   0.00000  Uiso   1.00
H230   H     0.08584   0.41508   0.37528   0.00000  Uiso   1.00
H231   H     0.22140   0.53358   0.05254   0.00000  Uiso   1.00
H232   H     0.15864   0.57161   0.25239   0.00000  Uiso   1.00
H233   H     0.23774   0.45317   0.17564   0.00000  Uiso   1.00
H234   H     0.16616   0.57083   0.00150   0.00000  Uiso   1.00
H235   H     0.18339   0.40557   0.23285   0.00000  Uiso   1.00
H236   H     0.18174   0.40543   0.48095   0.00000  Uiso   1.00
H237   H     0.07553   0.57692   0.59665   0.00000  Uiso   1.00
H238   H     0.14414   0.45016   0.62773   0.00000  Uiso   1.00
H239   H     0.07345   0.56936   0.84703   0.00000  Uiso   1.00
H240   H     0.15594   0.43627   0.88163   0.00000  Uiso   1.00
H241   H     0.15610   0.56942   0.75450   0.00000  Uiso   1.00
H242   H     0.22764   0.54401   0.55220   0.00000  Uiso   1.00
H243   H     0.24262   0.45171   0.68129   0.00000  Uiso   1.00
H244   H     0.08135   0.41741   0.61833   0.00000  Uiso   1.00
H245   H     0.09144   0.40822   0.87872   0.00000  Uiso   1.00
H246   H     0.18234   0.40258   0.73163   0.00000  Uiso   1.00
H247   H     0.15969   0.57044   0.50048   0.00000  Uiso   1.00
H248   H     0.14467   0.77952   0.37244   0.00000  Uiso   1.00
H249   H     0.08545   0.75005   0.11615   0.00000  Uiso   1.00
H250   H     0.14490   0.78481   0.11883   0.00000  Uiso   1.00
H251   H     0.09303   0.60640   0.25397   0.00000  Uiso   1.00
H252   H     0.17911   0.73600   0.22815   0.00000  Uiso   1.00
H253   H     0.08775   0.73905   0.37706   0.00000  Uiso   1.00
H254   H     0.18340   0.73621   0.47892   0.00000  Uiso   1.00
H255   H     0.02823   0.70378   0.42609   0.00000  Uiso   1.00
H256   H     0.01289   0.71028   0.17677   0.00000  Uiso   1.00
H257   H     0.23520   0.78828   0.42109   0.00000  Uiso   1.00
H258   H     0.24131   0.78915   0.16854   0.00000  Uiso   1.00
H259   H     0.08774   0.73868   0.62368   0.00000  Uiso   1.00
H260   H     0.14086   0.78376   0.62278   0.00000  Uiso   1.00
H261   H     0.18468   0.72715   0.72848   0.00000  Uiso   1.00
H262   H     0.08024   0.75329   0.86152   0.00000  Uiso   1.00
H263   H     0.14171   0.78594   0.86089   0.00000  Uiso   1.00
H264   H     0.18217   0.73789   0.97028   0.00000  Uiso   1.00
H265   H     0.09469   0.60308   0.75569   0.00000  Uiso   1.00
H266   H     0.02919   0.70080   0.67413   0.00000  Uiso   1.00
H267   H     0.24338   0.78623   0.66891   0.00000  Uiso   1.00
H268   H     0.10482   0.61363   0.99842   0.00000  Uiso   1.00
H269   H     0.09809   0.60408   0.50219   0.00000  Uiso   1.00
H270   H     0.06992   0.90015   0.09845   0.00000  Uiso   1.00
H271   H     0.16518   0.91733   0.24495   0.00000  Uiso   1.00
H272   H     0.09950   0.94829   0.24848   0.00000  Uiso   1.00
H273   H     0.08007   0.91144   0.33790   0.00000  Uiso   1.00
H274   H     0.09431   0.93805   0.49733   0.00000  Uiso   1.00
H275   H     0.23285   0.87994   0.04207   0.00000  Uiso   1.00
H276   H     0.01254   0.95428   0.04543   0.00000  Uiso   1.00
H277   H     0.16046   0.90300   0.49845   0.00000  Uiso   1.00
H278   H     0.07053   0.89660   0.61115   0.00000  Uiso   1.00
H279   H     0.16989   0.91552   0.74984   0.00000  Uiso   1.00
H280   H     0.10592   0.95296   0.74988   0.00000  Uiso   1.00
H281   H     0.22980   0.87807   0.54371   0.00000  Uiso   1.00
H282   H     0.07146   0.90841   0.84871   0.00000  Uiso   1.00
H283   H     0.09882   0.94783   0.99745   0.00000  Uiso   1.00
H284   H     0.01119   0.95393   0.80021   0.00000  Uiso   1.00
H285   H     0.15980   0.90904   0.99988   0.00000  Uiso   1.00
H286   H     0.48476   0.04874   0.17113   0.00000  Uiso   1.00
H287   H     0.42373   0.08942   0.21561   0.00000  Uiso   1.00
H288   H     0.33527   0.08524   0.11442   0.00000  Uiso   1.00
H289   H     0.39519   0.04926   0.11349   0.00000  Uiso   1.00
H290   H     0.42508   0.09503   0.47053   0.00000  Uiso   1.00
H291   H     0.34260   0.09954   0.37208   0.00000  Uiso   1.00
H292   H     0.40811   0.06953   0.37914   0.00000  Uiso   1.00
H293   H     0.27768   0.12663   0.17250   0.00000  Uiso   1.00
H294   H     0.49876   0.05023   0.41832   0.00000  Uiso   1.00
H295   H     0.49694   0.04842   0.67153   0.00000  Uiso   1.00
H296   H     0.42398   0.08628   0.71846   0.00000  Uiso   1.00
H297   H     0.33414   0.08756   0.62309   0.00000  Uiso   1.00
H298   H     0.39719   0.05460   0.62598   0.00000  Uiso   1.00
H299   H     0.33462   0.09170   0.87102   0.00000  Uiso   1.00
H300   H     0.39411   0.05525   0.87321   0.00000  Uiso   1.00
H301   H     0.26222   0.12115   0.92487   0.00000  Uiso   1.00
H302   H     0.43137   0.10106   0.97333   0.00000  Uiso   1.00
H303   H     0.27733   0.13812   0.67386   0.00000  Uiso   1.00
H304   H     0.40434   0.25726   0.24695   0.00000  Uiso   1.00
H305   H     0.47534   0.29139   0.30324   0.00000  Uiso   1.00
H306   H     0.32300   0.25846   0.08978   0.00000  Uiso   1.00
H307   H     0.34084   0.22822   0.25042   0.00000  Uiso   1.00
H308   H     0.31861   0.26714   0.34816   0.00000  Uiso   1.00
H309   H     0.40457   0.39421   0.38189   0.00000  Uiso   1.00
H310   H     0.48410   0.37495   0.42606   0.00000  Uiso   1.00
H311   H     0.47502   0.28934   0.05332   0.00000  Uiso   1.00
H312   H     0.39485   0.37925   0.12816   0.00000  Uiso   1.00
H313   H     0.26526   0.21418   0.29570   0.00000  Uiso   1.00
H314   H     0.25599   0.21526   0.05350   0.00000  Uiso   1.00
H315   H     0.40770   0.25646   0.00006   0.00000  Uiso   1.00
H316   H     0.34374   0.22425   0.00246   0.00000  Uiso   1.00
H317   H     0.41342   0.25195   0.73715   0.00000  Uiso   1.00
H318   H     0.48996   0.37939   0.67651   0.00000  Uiso   1.00
H319   H     0.30922   0.26645   0.60350   0.00000  Uiso   1.00
H320   H     0.26090   0.21368   0.80045   0.00000  Uiso   1.00
H321   H     0.34916   0.22239   0.74651   0.00000  Uiso   1.00
H322   H     0.31944   0.26208   0.84755   0.00000  Uiso   1.00
H323   H     0.46959   0.29153   0.55186   0.00000  Uiso   1.00
H324   H     0.40414   0.38501   0.63146   0.00000  Uiso   1.00
H325   H     0.40927   0.39543   0.87660   0.00000  Uiso   1.00
H326   H     0.34594   0.22457   0.50365   0.00000  Uiso   1.00
H327   H     0.40845   0.25614   0.50256   0.00000  Uiso   1.00
H328   H     0.41883   0.41778   0.22170   0.00000  Uiso   1.00
H329   H     0.36351   0.54345   0.24198   0.00000  Uiso   1.00
H330   H     0.33038   0.41140   0.12360   0.00000  Uiso   1.00
H331   H     0.42999   0.42538   0.47721   0.00000  Uiso   1.00
H332   H     0.27930   0.46542   0.42747   0.00000  Uiso   1.00
H333   H     0.34146   0.43106   0.38151   0.00000  Uiso   1.00
H334   H     0.32263   0.59315   0.10034   0.00000  Uiso   1.00
H335   H     0.42366   0.57506   0.23576   0.00000  Uiso   1.00
H336   H     0.35627   0.55226   0.00224   0.00000  Uiso   1.00
H337   H     0.32669   0.58303   0.34346   0.00000  Uiso   1.00
H338   H     0.26120   0.54594   0.30035   0.00000  Uiso   1.00
H339   H     0.40656   0.59751   0.50150   0.00000  Uiso   1.00
H340   H     0.32263   0.58838   0.84651   0.00000  Uiso   1.00
H341   H     0.43362   0.43117   0.72383   0.00000  Uiso   1.00
H342   H     0.35811   0.55426   0.74969   0.00000  Uiso   1.00
H343   H     0.41704   0.58798   0.99530   0.00000  Uiso   1.00
H344   H     0.34077   0.41884   0.63034   0.00000  Uiso   1.00
H345   H     0.42411   0.41636   0.97587   0.00000  Uiso   1.00
H346   H     0.41998   0.58145   0.74084   0.00000  Uiso   1.00
H347   H     0.34368   0.42649   0.88016   0.00000  Uiso   1.00
H348   H     0.28027   0.45841   0.92614   0.00000  Uiso   1.00
H349   H     0.34859   0.56569   0.50551   0.00000  Uiso   1.00
H350   H     0.25992   0.54860   0.79928   0.00000  Uiso   1.00
H351   H     0.31609   0.59652   0.60583   0.00000  Uiso   1.00
H352   H     0.41923   0.75098   0.20967   0.00000  Uiso   1.00
H353   H     0.33587   0.75734   0.11436   0.00000  Uiso   1.00
H354   H     0.39933   0.72865   0.12279   0.00000  Uiso   1.00
H355   H     0.42392   0.75756   0.46161   0.00000  Uiso   1.00
H356   H     0.33764   0.75941   0.37274   0.00000  Uiso   1.00
H357   H     0.39774   0.72209   0.37554   0.00000  Uiso   1.00
H358   H     0.49902   0.61679   0.04046   0.00000  Uiso   1.00
H359   H     0.43053   0.76022   0.72220   0.00000  Uiso   1.00
H360   H     0.33765   0.75670   0.61794   0.00000  Uiso   1.00
H361   H     0.39900   0.72594   0.62244   0.00000  Uiso   1.00
H362   H     0.47596   0.62406   0.54459   0.00000  Uiso   1.00
H363   H     0.48197   0.71098   0.66953   0.00000  Uiso   1.00
H364   H     0.33233   0.75096   0.86304   0.00000  Uiso   1.00
H365   H     0.39495   0.71753   0.86928   0.00000  Uiso   1.00
H366   H     0.47436   0.62473   0.79285   0.00000  Uiso   1.00
H367   H     0.42826   0.75427   0.95922   0.00000  Uiso   1.00
H368   H     0.26991   0.79078   0.91959   0.00000  Uiso   1.00
H369   H     0.49796   0.71586   0.91753   0.00000  Uiso   1.00
H370   H     0.25808   0.87981   0.29773   0.00000  Uiso   1.00
H371   H     0.41595   0.92188   0.24462   0.00000  Uiso   1.00
H372   H     0.35020   0.88172   0.24221   0.00000  Uiso   1.00
H373   H     0.31877   0.93404   0.09746   0.00000  Uiso   1.00
H374   H     0.32595   0.92526   0.34093   0.00000  Uiso   1.00
H375   H     0.47672   0.95897   0.29181   0.00000  Uiso   1.00
H376   H     0.35124   0.89100   0.49976   0.00000  Uiso   1.00
H377   H     0.41205   0.92115   0.49490   0.00000  Uiso   1.00
H378   H     0.34701   0.89467   0.00108   0.00000  Uiso   1.00
H379   H     0.41392   0.91463   0.74342   0.00000  Uiso   1.00
H380   H     0.35000   0.88143   0.74881   0.00000  Uiso   1.00
H381   H     0.32002   0.92720   0.59931   0.00000  Uiso   1.00
H382   H     0.41112   0.92784   0.99872   0.00000  Uiso   1.00
H383   H     0.47720   0.95852   0.54207   0.00000  Uiso   1.00
H384   H     0.32292   0.93166   0.84320   0.00000  Uiso   1.00
H385   H     0.26405   0.87894   0.79460   0.00000  Uiso   1.00
H386   H     0.58521   0.07900   0.11688   0.00000  Uiso   1.00
H387   H     0.64307   0.11057   0.12678   0.00000  Uiso   1.00
H388   H     0.67876   0.07283   0.22108   0.00000  Uiso   1.00
H389   H     0.58105   0.08171   0.36595   0.00000  Uiso   1.00
H390   H     0.64468   0.11904   0.36691   0.00000  Uiso   1.00
H391   H     0.67740   0.07843   0.46832   0.00000  Uiso   1.00
H392   H     0.52978   0.03656   0.91881   0.00000  Uiso   1.00
H393   H     0.73885   0.12260   0.91971   0.00000  Uiso   1.00
H394   H     0.58323   0.08923   0.61398   0.00000  Uiso   1.00
H395   H     0.64577   0.11870   0.61677   0.00000  Uiso   1.00
H396   H     0.67761   0.07963   0.71718   0.00000  Uiso   1.00
H397   H     0.58655   0.08249   0.86603   0.00000  Uiso   1.00
H398   H     0.64800   0.11318   0.87463   0.00000  Uiso   1.00
H399   H     0.68486   0.07276   0.97585   0.00000  Uiso   1.00
H400   H     0.56403   0.23510   0.10480   0.00000  Uiso   1.00
H401   H     0.66074   0.24082   0.24531   0.00000  Uiso   1.00
H402   H     0.59890   0.27343   0.25473   0.00000  Uiso   1.00
H403   H     0.50884   0.37863   0.18038   0.00000  Uiso   1.00
H404   H     0.57283   0.23509   0.35388   0.00000  Uiso   1.00
H405   H     0.72735   0.21207   0.04184   0.00000  Uiso   1.00
H406   H     0.72551   0.21133   0.29232   0.00000  Uiso   1.00
H407   H     0.66647   0.24132   0.49956   0.00000  Uiso   1.00
H408   H     0.60976   0.28679   0.00058   0.00000  Uiso   1.00
H409   H     0.72578   0.21301   0.79047   0.00000  Uiso   1.00
H410   H     0.56917   0.23545   0.60055   0.00000  Uiso   1.00
H411   H     0.65624   0.23922   0.75428   0.00000  Uiso   1.00
H412   H     0.59550   0.27176   0.75516   0.00000  Uiso   1.00
H413   H     0.57199   0.24268   0.85279   0.00000  Uiso   1.00
H414   H     0.52269   0.37680   0.92388   0.00000  Uiso   1.00
H415   H     0.66660   0.24565   0.99995   0.00000  Uiso   1.00
H416   H     0.50705   0.28652   0.79926   0.00000  Uiso   1.00
H417   H     0.60392   0.27404   0.50398   0.00000  Uiso   1.00
H418   H     0.56891   0.56297   0.09745   0.00000  Uiso   1.00
H419   H     0.64332   0.44705   0.12748   0.00000  Uiso   1.00
H420   H     0.66420   0.58302   0.24364   0.00000  Uiso   1.00
H421   H     0.56917   0.57010   0.34969   0.00000  Uiso   1.00
H422   H     0.63746   0.45902   0.36770   0.00000  Uiso   1.00
H423   H     0.72623   0.54563   0.29734   0.00000  Uiso   1.00
H424   H     0.58055   0.42280   0.36550   0.00000  Uiso   1.00
H425   H     0.65952   0.57957   0.00183   0.00000  Uiso   1.00
H426   H     0.73568   0.45293   0.42227   0.00000  Uiso   1.00
H427   H     0.73259   0.54507   0.04978   0.00000  Uiso   1.00
H428   H     0.67184   0.41170   0.47462   0.00000  Uiso   1.00
H429   H     0.58927   0.41134   0.12979   0.00000  Uiso   1.00
H430   H     0.67650   0.40369   0.22884   0.00000  Uiso   1.00
H431   H     0.57104   0.57530   0.59624   0.00000  Uiso   1.00
H432   H     0.64228   0.44438   0.63060   0.00000  Uiso   1.00
H433   H     0.66436   0.58357   0.74439   0.00000  Uiso   1.00
H434   H     0.58002   0.41250   0.87524   0.00000  Uiso   1.00
H435   H     0.57794   0.58179   0.83882   0.00000  Uiso   1.00
H436   H     0.64179   0.44607   0.88151   0.00000  Uiso   1.00
H437   H     0.58594   0.40036   0.63053   0.00000  Uiso   1.00
H438   H     0.67611   0.40825   0.72922   0.00000  Uiso   1.00
H439   H     0.73654   0.45415   0.67639   0.00000  Uiso   1.00
H440   H     0.66033   0.57346   0.50039   0.00000  Uiso   1.00
H441   H     0.66934   0.41243   0.97257   0.00000  Uiso   1.00
H442   H     0.65404   0.76800   0.37503   0.00000  Uiso   1.00
H443   H     0.68412   0.73298   0.47923   0.00000  Uiso   1.00
H444   H     0.58343   0.74886   0.11279   0.00000  Uiso   1.00
H445   H     0.59967   0.62075   0.23780   0.00000  Uiso   1.00
H446   H     0.52447   0.70371   0.41813   0.00000  Uiso   1.00
H447   H     0.67691   0.74507   0.21526   0.00000  Uiso   1.00
H448   H     0.59588   0.73404   0.37375   0.00000  Uiso   1.00
H449   H     0.64380   0.78456   0.11907   0.00000  Uiso   1.00
H450   H     0.74270   0.78603   0.41660   0.00000  Uiso   1.00
H451   H     0.51223   0.61796   0.29608   0.00000  Uiso   1.00
H452   H     0.52746   0.70609   0.17057   0.00000  Uiso   1.00
H453   H     0.59583   0.61379   0.00083   0.00000  Uiso   1.00
H454   H     0.58346   0.75180   0.61493   0.00000  Uiso   1.00
H455   H     0.64712   0.77936   0.87039   0.00000  Uiso   1.00
H456   H     0.68465   0.73425   0.97590   0.00000  Uiso   1.00
H457   H     0.67905   0.73759   0.71779   0.00000  Uiso   1.00
H458   H     0.58594   0.74263   0.86663   0.00000  Uiso   1.00
H459   H     0.59775   0.60742   0.50307   0.00000  Uiso   1.00
H460   H     0.64251   0.78646   0.61948   0.00000  Uiso   1.00
H461   H     0.59847   0.61800   0.74456   0.00000  Uiso   1.00
H462   H     0.57659   0.90950   0.08963   0.00000  Uiso   1.00
H463   H     0.65649   0.91261   0.24567   0.00000  Uiso   1.00
H464   H     0.59735   0.94282   0.24812   0.00000  Uiso   1.00
H465   H     0.57533   0.91154   0.33993   0.00000  Uiso   1.00
H466   H     0.51047   0.95338   0.04740   0.00000  Uiso   1.00
H467   H     0.60486   0.95418   0.49061   0.00000  Uiso   1.00
H468   H     0.66344   0.92103   0.49497   0.00000  Uiso   1.00
H469   H     0.72688   0.88219   0.29816   0.00000  Uiso   1.00
H470   H     0.58317   0.91673   0.58640   0.00000  Uiso   1.00
H471   H     0.66717   0.91582   0.74378   0.00000  Uiso   1.00
H472   H     0.60685   0.95244   0.74545   0.00000  Uiso   1.00
H473   H     0.57446   0.90649   0.83929   0.00000  Uiso   1.00
H474   H     0.50463   0.94983   0.79607   0.00000  Uiso   1.00
H475   H     0.73373   0.87760   0.79048   0.00000  Uiso   1.00
H476   H     0.66341   0.90991   0.99082   0.00000  Uiso   1.00
H477   H     0.59770   0.94116   0.99553   0.00000  Uiso   1.00
H478   H     0.99157   0.04620   0.41557   0.00000  Uiso   1.00
H479   H     0.93314   0.09542   0.21970   0.00000  Uiso   1.00
H480   H     0.83047   0.08338   0.10930   0.00000  Uiso   1.00
H481   H     0.89092   0.05198   0.12191   0.00000  Uiso   1.00
H482   H     0.83223   0.08764   0.36435   0.00000  Uiso   1.00
H483   H     0.90019   0.05589   0.36836   0.00000  Uiso   1.00
H484   H     0.77920   0.13357   0.17030   0.00000  Uiso   1.00
H485   H     0.93688   0.09735   0.47611   0.00000  Uiso   1.00
H486   H     0.77695   0.12878   0.41792   0.00000  Uiso   1.00
H487   H     0.99301   0.04695   0.16720   0.00000  Uiso   1.00
H488   H     0.93533   0.10544   0.72626   0.00000  Uiso   1.00
H489   H     0.83729   0.09406   0.61630   0.00000  Uiso   1.00
H490   H     0.89848   0.05532   0.62182   0.00000  Uiso   1.00
H491   H     0.83435   0.08995   0.86506   0.00000  Uiso   1.00
H492   H     0.88907   0.04782   0.85889   0.00000  Uiso   1.00
H493   H     0.98573   0.04474   0.67184   0.00000  Uiso   1.00
H494   H     0.93463   0.10081   0.97837   0.00000  Uiso   1.00
H495   H     0.77180   0.12511   0.67082   0.00000  Uiso   1.00
H496   H     0.91322   0.25247   0.25249   0.00000  Uiso   1.00
H497   H     0.83587   0.25875   0.08738   0.00000  Uiso   1.00
H498   H     0.90385   0.26522   0.01005   0.00000  Uiso   1.00
H499   H     0.84871   0.21782   0.24518   0.00000  Uiso   1.00
H500   H     0.82483   0.26049   0.33805   0.00000  Uiso   1.00
H501   H     0.89626   0.38458   0.38260   0.00000  Uiso   1.00
H502   H     0.84289   0.22965   0.00215   0.00000  Uiso   1.00
H503   H     0.98754   0.38120   0.17488   0.00000  Uiso   1.00
H504   H     0.90102   0.39046   0.12984   0.00000  Uiso   1.00
H505   H     0.90896   0.25445   0.49923   0.00000  Uiso   1.00
H506   H     0.84499   0.22475   0.49841   0.00000  Uiso   1.00
H507   H     0.90516   0.26379   0.75436   0.00000  Uiso   1.00
H508   H     0.84672   0.22488   0.74915   0.00000  Uiso   1.00
H509   H     0.99794   0.38267   0.92795   0.00000  Uiso   1.00
H510   H     0.81892   0.26655   0.59848   0.00000  Uiso   1.00
H511   H     0.90115   0.39420   0.63454   0.00000  Uiso   1.00
H512   H     0.89123   0.38753   0.87747   0.00000  Uiso   1.00
H513   H     0.81994   0.26868   0.84906   0.00000  Uiso   1.00
H514   H     0.76498   0.21369   0.54169   0.00000  Uiso   1.00
H515   H     0.96917   0.29609   0.79694   0.00000  Uiso   1.00
H516   H     0.98064   0.38244   0.67806   0.00000  Uiso   1.00
H517   H     0.93274   0.43077   0.23560   0.00000  Uiso   1.00
H518   H     0.84666   0.55227   0.25194   0.00000  Uiso   1.00
H519   H     0.93009   0.42824   0.48035   0.00000  Uiso   1.00
H520   H     0.83485   0.42505   0.37822   0.00000  Uiso   1.00
H521   H     0.77469   0.45907   0.17310   0.00000  Uiso   1.00
H522   H     0.82587   0.58453   0.09422   0.00000  Uiso   1.00
H523   H     0.83588   0.42342   0.12522   0.00000  Uiso   1.00
H524   H     0.90898   0.58693   0.25510   0.00000  Uiso   1.00
H525   H     0.82312   0.58676   0.34875   0.00000  Uiso   1.00
H526   H     0.91114   0.58569   0.49733   0.00000  Uiso   1.00
H527   H     0.91449   0.58493   0.00292   0.00000  Uiso   1.00
H528   H     0.85077   0.55049   0.49871   0.00000  Uiso   1.00
H529   H     0.76684   0.53884   0.55152   0.00000  Uiso   1.00
H530   H     0.83592   0.42918   0.62654   0.00000  Uiso   1.00
H531   H     0.92863   0.42915   0.73030   0.00000  Uiso   1.00
H532   H     0.84549   0.56210   0.75641   0.00000  Uiso   1.00
H533   H     0.82395   0.59232   0.84873   0.00000  Uiso   1.00
H534   H     0.84916   0.55141   0.99985   0.00000  Uiso   1.00
H535   H     0.75419   0.54657   0.80290   0.00000  Uiso   1.00
H536   H     0.93704   0.43116   0.98349   0.00000  Uiso   1.00
H537   H     0.82831   0.42036   0.86755   0.00000  Uiso   1.00
H538   H     0.81961   0.59425   0.60105   0.00000  Uiso   1.00
H539   H     0.76467   0.45428   0.92553   0.00000  Uiso   1.00
H540   H     0.90801   0.59048   0.75089   0.00000  Uiso   1.00
H541   H     0.93403   0.75679   0.47175   0.00000  Uiso   1.00
H542   H     0.93089   0.75981   0.23155   0.00000  Uiso   1.00
H543   H     0.83434   0.75165   0.12317   0.00000  Uiso   1.00
H544   H     0.88794   0.71203   0.12555   0.00000  Uiso   1.00
H545   H     0.83538   0.76140   0.37526   0.00000  Uiso   1.00
H546   H     0.89151   0.71586   0.37402   0.00000  Uiso   1.00
H547   H     0.97477   0.62193   0.04724   0.00000  Uiso   1.00
H548   H     0.77894   0.79623   0.17329   0.00000  Uiso   1.00
H549   H     0.98123   0.61620   0.30306   0.00000  Uiso   1.00
H550   H     0.93237   0.75766   0.72572   0.00000  Uiso   1.00
H551   H     0.82934   0.74735   0.61338   0.00000  Uiso   1.00
H552   H     0.88874   0.71010   0.61644   0.00000  Uiso   1.00
H553   H     0.93450   0.75990   0.98396   0.00000  Uiso   1.00
H554   H     0.83761   0.75846   0.87517   0.00000  Uiso   1.00
H555   H     0.90130   0.72506   0.87957   0.00000  Uiso   1.00
H556   H     0.77254   0.79044   0.66703   0.00000  Uiso   1.00
H557   H     0.97388   0.62119   0.54590   0.00000  Uiso   1.00
H558   H     0.77623   0.79442   0.92139   0.00000  Uiso   1.00
H559   H     0.98142   0.61772   0.79829   0.00000  Uiso   1.00
H560   H     0.98739   0.70814   0.92213   0.00000  Uiso   1.00
H561   H     0.91166   0.92486   0.25079   0.00000  Uiso   1.00
H562   H     0.85005   0.89185   0.25166   0.00000  Uiso   1.00
H563   H     0.82740   0.92485   0.09362   0.00000  Uiso   1.00
H564   H     0.82544   0.92516   0.33676   0.00000  Uiso   1.00
H565   H     0.76359   0.87864   0.04055   0.00000  Uiso   1.00
H566   H     0.97843   0.95662   0.29591   0.00000  Uiso   1.00
H567   H     0.92645   0.91007   0.73895   0.00000  Uiso   1.00
H568   H     0.85772   0.87756   0.74072   0.00000  Uiso   1.00
H569   H     0.82479   0.92895   0.59652   0.00000  Uiso   1.00
H570   H     0.82820   0.91919   0.83397   0.00000  Uiso   1.00
H571   H     0.76632   0.87645   0.54393   0.00000  Uiso   1.00
H572   H     0.84090   0.89607   0.99732   0.00000  Uiso   1.00
H573   H     0.91060   0.92250   0.99325   0.00000  Uiso   1.00
H574   H     0.99943   0.94958   0.54333   0.00000  Uiso   1.00
H575   H     0.84427   0.89375   0.50111   0.00000  Uiso   1.00
H576   H     0.90461   0.93102   0.50388   0.00000  Uiso   1.00
C577   C     0.16408   0.06422   0.01372   0.00000  Uiso   1.00
C578   C     0.10239   0.07817   0.08525   0.00000  Uiso   1.00
C579   C     0.13711   0.10020   0.08394   0.00000  Uiso   1.00
C580   C     0.05820   0.03148   0.04233   0.00000  Uiso   1.00
C581   C     0.09699   0.05137   0.04671   0.00000  Uiso   1.00
C582   C     0.20336   0.11835   0.05207   0.00000  Uiso   1.00
C583   C     0.16748   0.09370   0.04717   0.00000  Uiso   1.00
C584   C     0.10538   0.07547   0.33888   0.00000  Uiso   1.00
C585   C     0.14223   0.09506   0.34128   0.00000  Uiso   1.00
C586   C     0.13067   0.04846   0.25750   0.00000  Uiso   1.00
C587   C     0.16529   0.06989   0.25993   0.00000  Uiso   1.00
C588   C     0.06122   0.03160   0.29222   0.00000  Uiso   1.00
C589   C     0.09877   0.05266   0.29546   0.00000  Uiso   1.00
C590   C     0.20266   0.12131   0.30268   0.00000  Uiso   1.00
C591   C     0.17164   0.09373   0.30071   0.00000  Uiso   1.00
C592   C     0.12799   0.04393   0.01180   0.00000  Uiso   1.00
C593   C     0.12835   0.05299   0.50586   0.00000  Uiso   1.00
C594   C     0.10334   0.08068   0.58654   0.00000  Uiso   1.00
C595   C     0.13834   0.10164   0.59105   0.00000  Uiso   1.00
C596   C     0.06071   0.03416   0.54159   0.00000  Uiso   1.00
C597   C     0.09831   0.05672   0.54391   0.00000  Uiso   1.00
C598   C     0.20316   0.12061   0.55435   0.00000  Uiso   1.00
C599   C     0.16846   0.09698   0.55335   0.00000  Uiso   1.00
C600   C     0.10569   0.07836   0.83751   0.00000  Uiso   1.00
C601   C     0.14032   0.09830   0.84209   0.00000  Uiso   1.00
C602   C     0.12570   0.05555   0.75275   0.00000  Uiso   1.00
C603   C     0.16077   0.07760   0.75614   0.00000  Uiso   1.00
C604   C     0.05932   0.03668   0.79061   0.00000  Uiso   1.00
C605   C     0.09743   0.05560   0.79335   0.00000  Uiso   1.00
C606   C     0.20148   0.12431   0.79945   0.00000  Uiso   1.00
C607   C     0.16719   0.09976   0.79812   0.00000  Uiso   1.00
C608   C     0.16407   0.07232   0.50996   0.00000  Uiso   1.00
C609   C     0.18424   0.19930   0.67270   0.00000  Uiso   1.00
C610   C     0.08066   0.26048   0.43097   0.00000  Uiso   1.00
C611   C     0.14438   0.24328   0.46767   0.00000  Uiso   1.00
C612   C     0.12856   0.38314   0.26157   0.00000  Uiso   1.00
C613   C     0.10654   0.25888   0.47209   0.00000  Uiso   1.00
C614   C     0.10003   0.38394   0.30230   0.00000  Uiso   1.00
C615   C     0.12892   0.22162   0.13082   0.00000  Uiso   1.00
C616   C     0.09351   0.24043   0.13260   0.00000  Uiso   1.00
C617   C     0.06121   0.36486   0.30199   0.00000  Uiso   1.00
C618   C     0.15477   0.22325   0.17328   0.00000  Uiso   1.00
C619   C     0.04962   0.28616   0.17551   0.00000  Uiso   1.00
C620   C     0.08165   0.26081   0.17638   0.00000  Uiso   1.00
C621   C     0.14536   0.24453   0.21740   0.00000  Uiso   1.00
C622   C     0.10658   0.26211   0.22069   0.00000  Uiso   1.00
C623   C     0.06192   0.36563   0.04759   0.00000  Uiso   1.00
C624   C     0.10035   0.38622   0.04573   0.00000  Uiso   1.00
C625   C     0.12537   0.21810   0.38707   0.00000  Uiso   1.00
C626   C     0.08955   0.23864   0.38746   0.00000  Uiso   1.00
C627   C     0.15344   0.22237   0.42430   0.00000  Uiso   1.00
C628   C     0.04684   0.28541   0.42778   0.00000  Uiso   1.00
C629   C     0.12830   0.38307   0.00407   0.00000  Uiso   1.00
C630   C     0.19048   0.20106   0.42437   0.00000  Uiso   1.00
C631   C     0.19332   0.20100   0.17447   0.00000  Uiso   1.00
C632   C     0.07580   0.25780   0.92672   0.00000  Uiso   1.00
C633   C     0.10139   0.25940   0.96956   0.00000  Uiso   1.00
C634   C     0.12678   0.38401   0.51042   0.00000  Uiso   1.00
C635   C     0.13775   0.24150   0.96915   0.00000  Uiso   1.00
C636   C     0.12384   0.38621   0.75722   0.00000  Uiso   1.00
C637   C     0.04288   0.28417   0.92254   0.00000  Uiso   1.00
C638   C     0.11612   0.21866   0.63300   0.00000  Uiso   1.00
C639   C     0.08091   0.23823   0.63820   0.00000  Uiso   1.00
C640   C     0.09625   0.38984   0.79938   0.00000  Uiso   1.00
C641   C     0.14652   0.22107   0.67383   0.00000  Uiso   1.00
C642   C     0.04257   0.28985   0.67933   0.00000  Uiso   1.00
C643   C     0.07429   0.26057   0.68205   0.00000  Uiso   1.00
C644   C     0.13739   0.24194   0.71883   0.00000  Uiso   1.00
C645   C     0.10014   0.25974   0.72401   0.00000  Uiso   1.00
C646   C     0.05838   0.36621   0.55127   0.00000  Uiso   1.00
C647   C     0.09710   0.38674   0.54986   0.00000  Uiso   1.00
C648   C     0.12620   0.22018   0.87981   0.00000  Uiso   1.00
C649   C     0.08728   0.23694   0.88325   0.00000  Uiso   1.00
C650   C     0.05696   0.37096   0.80028   0.00000  Uiso   1.00
C651   C     0.15038   0.22214   0.92550   0.00000  Uiso   1.00
C652   C     0.18828   0.20126   0.92560   0.00000  Uiso   1.00
C653   C     0.07822   0.58833   0.42506   0.00000  Uiso   1.00
C654   C     0.10335   0.59180   0.21885   0.00000  Uiso   1.00
C655   C     0.12487   0.55152   0.12988   0.00000  Uiso   1.00
C656   C     0.16797   0.42885   0.30347   0.00000  Uiso   1.00
C657   C     0.09044   0.57300   0.13002   0.00000  Uiso   1.00
C658   C     0.14632   0.42509   0.09275   0.00000  Uiso   1.00
C659   C     0.19051   0.53035   0.17372   0.00000  Uiso   1.00
C660   C     0.15177   0.55185   0.17484   0.00000  Uiso   1.00
C661   C     0.16238   0.40426   0.26317   0.00000  Uiso   1.00
C662   C     0.14011   0.57214   0.21836   0.00000  Uiso   1.00
C663   C     0.20554   0.45077   0.04957   0.00000  Uiso   1.00
C664   C     0.17215   0.42428   0.05140   0.00000  Uiso   1.00
C665   C     0.12319   0.54630   0.38133   0.00000  Uiso   1.00
C666   C     0.08976   0.57086   0.37965   0.00000  Uiso   1.00
C667   C     0.14289   0.42822   0.34607   0.00000  Uiso   1.00
C668   C     0.19072   0.53056   0.42516   0.00000  Uiso   1.00
C669   C     0.15016   0.54797   0.42387   0.00000  Uiso   1.00
C670   C     0.13888   0.56772   0.46754   0.00000  Uiso   1.00
C671   C     0.20038   0.45420   0.30092   0.00000  Uiso   1.00
C672   C     0.10225   0.58501   0.46917   0.00000  Uiso   1.00
C673   C     0.07780   0.59053   0.17574   0.00000  Uiso   1.00
C674   C     0.10895   0.40753   0.08959   0.00000  Uiso   1.00
C675   C     0.10726   0.40824   0.34419   0.00000  Uiso   1.00
C676   C     0.16356   0.40221   0.00815   0.00000  Uiso   1.00
C677   C     0.07923   0.59124   0.67442   0.00000  Uiso   1.00
C678   C     0.17146   0.42395   0.80403   0.00000  Uiso   1.00
C679   C     0.16079   0.40279   0.76073   0.00000  Uiso   1.00
C680   C     0.12600   0.55212   0.63121   0.00000  Uiso   1.00
C681   C     0.10907   0.40809   0.84437   0.00000  Uiso   1.00
C682   C     0.09217   0.57334   0.63011   0.00000  Uiso   1.00
C683   C     0.14168   0.42950   0.59630   0.00000  Uiso   1.00
C684   C     0.18897   0.53058   0.67564   0.00000  Uiso   1.00
C685   C     0.15049   0.55150   0.67401   0.00000  Uiso   1.00
C686   C     0.16153   0.40603   0.51235   0.00000  Uiso   1.00
C687   C     0.13768   0.57018   0.72112   0.00000  Uiso   1.00
C688   C     0.08438   0.59033   0.92430   0.00000  Uiso   1.00
C689   C     0.20438   0.45473   0.55350   0.00000  Uiso   1.00
C690   C     0.17055   0.42746   0.55652   0.00000  Uiso   1.00
C691   C     0.12520   0.54650   0.88281   0.00000  Uiso   1.00
C692   C     0.09239   0.56923   0.88035   0.00000  Uiso   1.00
C693   C     0.14578   0.42446   0.84564   0.00000  Uiso   1.00
C694   C     0.19266   0.53054   0.92478   0.00000  Uiso   1.00
C695   C     0.15242   0.54878   0.92576   0.00000  Uiso   1.00
C696   C     0.14616   0.57220   0.96854   0.00000  Uiso   1.00
C697   C     0.20512   0.45106   0.80306   0.00000  Uiso   1.00
C698   C     0.10456   0.41226   0.59076   0.00000  Uiso   1.00
C699   C     0.11105   0.59414   0.96694   0.00000  Uiso   1.00
C700   C     0.10094   0.58700   0.72091   0.00000  Uiso   1.00
C701   C     0.12468   0.71802   0.00244   0.00000  Uiso   1.00
C702   C     0.04492   0.61615   0.17266   0.00000  Uiso   1.00
C703   C     0.10528   0.74550   0.08428   0.00000  Uiso   1.00
C704   C     0.13965   0.76787   0.08415   0.00000  Uiso   1.00
C705   C     0.05571   0.70177   0.04676   0.00000  Uiso   1.00
C706   C     0.09515   0.72241   0.04313   0.00000  Uiso   1.00
C707   C     0.20148   0.79080   0.04472   0.00000  Uiso   1.00
C708   C     0.16701   0.76434   0.04535   0.00000  Uiso   1.00
C709   C     0.04550   0.61660   0.42525   0.00000  Uiso   1.00
C710   C     0.10297   0.74164   0.33832   0.00000  Uiso   1.00
C711   C     0.13727   0.76449   0.33898   0.00000  Uiso   1.00
C712   C     0.12130   0.72063   0.25223   0.00000  Uiso   1.00
C713   C     0.15698   0.74075   0.25490   0.00000  Uiso   1.00
C714   C     0.05786   0.69621   0.29745   0.00000  Uiso   1.00
C715   C     0.09432   0.72005   0.29593   0.00000  Uiso   1.00
C716   C     0.19934   0.78789   0.29649   0.00000  Uiso   1.00
C717   C     0.16426   0.76515   0.29743   0.00000  Uiso   1.00
C718   C     0.15997   0.74191   0.00262   0.00000  Uiso   1.00
C719   C     0.12836   0.71215   0.50960   0.00000  Uiso   1.00
C720   C     0.04630   0.61765   0.67339   0.00000  Uiso   1.00
C721   C     0.10766   0.74013   0.59205   0.00000  Uiso   1.00
C722   C     0.13924   0.76391   0.59083   0.00000  Uiso   1.00
C723   C     0.16319   0.73500   0.51176   0.00000  Uiso   1.00
C724   C     0.05982   0.69452   0.54880   0.00000  Uiso   1.00
C725   C     0.09958   0.71416   0.55113   0.00000  Uiso   1.00
C726   C     0.20309   0.78662   0.55134   0.00000  Uiso   1.00
C727   C     0.16830   0.76096   0.55131   0.00000  Uiso   1.00
C728   C     0.04827   0.61532   0.92340   0.00000  Uiso   1.00
C729   C     0.10278   0.74518   0.83308   0.00000  Uiso   1.00
C730   C     0.13887   0.76486   0.83349   0.00000  Uiso   1.00
C731   C     0.12533   0.71394   0.75274   0.00000  Uiso   1.00
C732   C     0.16197   0.73337   0.75822   0.00000  Uiso   1.00
C733   C     0.05871   0.69810   0.79460   0.00000  Uiso   1.00
C734   C     0.09600   0.71890   0.79248   0.00000  Uiso   1.00
C735   C     0.20370   0.78363   0.79789   0.00000  Uiso   1.00
C736   C     0.16733   0.76024   0.79593   0.00000  Uiso   1.00
C737   C     0.12771   0.88693   0.13103   0.00000  Uiso   1.00
C738   C     0.08892   0.90448   0.13047   0.00000  Uiso   1.00
C739   C     0.19190   0.87055   0.17001   0.00000  Uiso   1.00
C740   C     0.15493   0.89263   0.17055   0.00000  Uiso   1.00
C741   C     0.04762   0.95454   0.16744   0.00000  Uiso   1.00
C742   C     0.08058   0.92839   0.17049   0.00000  Uiso   1.00
C743   C     0.14286   0.91384   0.21227   0.00000  Uiso   1.00
C744   C     0.10654   0.92914   0.21511   0.00000  Uiso   1.00
C745   C     0.13219   0.88756   0.37368   0.00000  Uiso   1.00
C746   C     0.09683   0.90953   0.37383   0.00000  Uiso   1.00
C747   C     0.19290   0.86636   0.42108   0.00000  Uiso   1.00
C748   C     0.15544   0.88619   0.42010   0.00000  Uiso   1.00
C749   C     0.05054   0.95338   0.41517   0.00000  Uiso   1.00
C750   C     0.08699   0.93052   0.41593   0.00000  Uiso   1.00
C751   C     0.14445   0.90705   0.46344   0.00000  Uiso   1.00
C752   C     0.10800   0.92591   0.46240   0.00000  Uiso   1.00
C753   C     0.12983   0.88539   0.63542   0.00000  Uiso   1.00
C754   C     0.09385   0.90518   0.63726   0.00000  Uiso   1.00
C755   C     0.19555   0.86925   0.67326   0.00000  Uiso   1.00
C756   C     0.15867   0.88856   0.67438   0.00000  Uiso   1.00
C757   C     0.05048   0.95313   0.67183   0.00000  Uiso   1.00
C758   C     0.08472   0.92910   0.67838   0.00000  Uiso   1.00
C759   C     0.14896   0.91132   0.71761   0.00000  Uiso   1.00
C760   C     0.11450   0.93461   0.71839   0.00000  Uiso   1.00
C761   C     0.13056   0.89028   0.87565   0.00000  Uiso   1.00
C762   C     0.09438   0.91088   0.87807   0.00000  Uiso   1.00
C763   C     0.19172   0.86936   0.92093   0.00000  Uiso   1.00
C764   C     0.15670   0.89191   0.91955   0.00000  Uiso   1.00
C765   C     0.04578   0.95453   0.91738   0.00000  Uiso   1.00
C766   C     0.08213   0.93091   0.92138   0.00000  Uiso   1.00
C767   C     0.14306   0.91092   0.96385   0.00000  Uiso   1.00
C768   C     0.10679   0.93025   0.96506   0.00000  Uiso   1.00
C769   C     0.37525   0.12122   0.00237   0.00000  Uiso   1.00
C770   C     0.30812   0.13616   0.04308   0.00000  Uiso   1.00
C771   C     0.34788   0.11808   0.04416   0.00000  Uiso   1.00
C772   C     0.45296   0.04864   0.04329   0.00000  Uiso   1.00
C773   C     0.41900   0.07527   0.04455   0.00000  Uiso   1.00
C774   C     0.35651   0.09162   0.08540   0.00000  Uiso   1.00
C775   C     0.39030   0.06979   0.08336   0.00000  Uiso   1.00
C776   C     0.37523   0.11652   0.25359   0.00000  Uiso   1.00
C777   C     0.40765   0.09362   0.25159   0.00000  Uiso   1.00
C778   C     0.30863   0.13666   0.29529   0.00000  Uiso   1.00
C779   C     0.34872   0.11709   0.29543   0.00000  Uiso   1.00
C780   C     0.45319   0.05029   0.29707   0.00000  Uiso   1.00
C781   C     0.41934   0.07430   0.29641   0.00000  Uiso   1.00
C782   C     0.36103   0.10018   0.34040   0.00000  Uiso   1.00
C783   C     0.39854   0.07998   0.34216   0.00000  Uiso   1.00
C784   C     0.41121   0.10049   0.00424   0.00000  Uiso   1.00
C785   C     0.40656   0.09367   0.50494   0.00000  Uiso   1.00
C786   C     0.30520   0.13361   0.54565   0.00000  Uiso   1.00
C787   C     0.34344   0.11230   0.54628   0.00000  Uiso   1.00
C788   C     0.45005   0.04499   0.54681   0.00000  Uiso   1.00
C789   C     0.41536   0.07136   0.54811   0.00000  Uiso   1.00
C790   C     0.35256   0.08925   0.58966   0.00000  Uiso   1.00
C791   C     0.39020   0.07067   0.59127   0.00000  Uiso   1.00
C792   C     0.37094   0.11452   0.75518   0.00000  Uiso   1.00
C793   C     0.40360   0.08856   0.75397   0.00000  Uiso   1.00
C794   C     0.30812   0.13974   0.79791   0.00000  Uiso   1.00
C795   C     0.34569   0.11529   0.79652   0.00000  Uiso   1.00
C796   C     0.45125   0.04507   0.79834   0.00000  Uiso   1.00
C797   C     0.41451   0.06850   0.79910   0.00000  Uiso   1.00
C798   C     0.35395   0.09268   0.83894   0.00000  Uiso   1.00
C799   C     0.38900   0.07210   0.84116   0.00000  Uiso   1.00
C800   C     0.37285   0.11483   0.50662   0.00000  Uiso   1.00
C801   C     0.41536   0.39947   0.05419   0.00000  Uiso   1.00
C802   C     0.38709   0.26273   0.21457   0.00000  Uiso   1.00
C803   C     0.34884   0.24378   0.21546   0.00000  Uiso   1.00
C804   C     0.37511   0.28003   0.12423   0.00000  Uiso   1.00
C805   C     0.33839   0.25790   0.12425   0.00000  Uiso   1.00
C806   C     0.43926   0.29859   0.17294   0.00000  Uiso   1.00
C807   C     0.39937   0.27980   0.17005   0.00000  Uiso   1.00
C808   C     0.29423   0.21459   0.16825   0.00000  Uiso   1.00
C809   C     0.32699   0.24005   0.17100   0.00000  Uiso   1.00
C810   C     0.44863   0.37544   0.04843   0.00000  Uiso   1.00
C811   C     0.38962   0.25625   0.46671   0.00000  Uiso   1.00
C812   C     0.35368   0.23762   0.46922   0.00000  Uiso   1.00
C813   C     0.37448   0.28408   0.38413   0.00000  Uiso   1.00
C814   C     0.33812   0.26360   0.38271   0.00000  Uiso   1.00
C815   C     0.44278   0.29695   0.42382   0.00000  Uiso   1.00
C816   C     0.40254   0.27674   0.42297   0.00000  Uiso   1.00
C817   C     0.29433   0.21510   0.42209   0.00000  Uiso   1.00
C818   C     0.32752   0.24074   0.42475   0.00000  Uiso   1.00
C819   C     0.45269   0.37930   0.29800   0.00000  Uiso   1.00
C820   C     0.38683   0.39527   0.09321   0.00000  Uiso   1.00
C821   C     0.38954   0.25855   0.71072   0.00000  Uiso   1.00
C822   C     0.35334   0.23956   0.71185   0.00000  Uiso   1.00
C823   C     0.36860   0.28869   0.62963   0.00000  Uiso   1.00
C824   C     0.33211   0.26908   0.63483   0.00000  Uiso   1.00
C825   C     0.43547   0.30328   0.67088   0.00000  Uiso   1.00
C826   C     0.39775   0.28289   0.67002   0.00000  Uiso   1.00
C827   C     0.29079   0.21853   0.67074   0.00000  Uiso   1.00
C828   C     0.32458   0.24371   0.67444   0.00000  Uiso   1.00
C829   C     0.45379   0.37636   0.54777   0.00000  Uiso   1.00
C830   C     0.38932   0.25749   0.96581   0.00000  Uiso   1.00
C831   C     0.35322   0.23870   0.96769   0.00000  Uiso   1.00
C832   C     0.37706   0.28080   0.87916   0.00000  Uiso   1.00
C833   C     0.34138   0.26049   0.87857   0.00000  Uiso   1.00
C834   C     0.44129   0.29885   0.92488   0.00000  Uiso   1.00
C835   C     0.40260   0.27751   0.92171   0.00000  Uiso   1.00
C836   C     0.29666   0.21545   0.92262   0.00000  Uiso   1.00
C837   C     0.32801   0.24159   0.92520   0.00000  Uiso   1.00
C838   C     0.45318   0.38159   0.79880   0.00000  Uiso   1.00
C839   C     0.39418   0.39952   0.59671   0.00000  Uiso   1.00
C840   C     0.29524   0.54727   0.42769   0.00000  Uiso   1.00
C841   C     0.34382   0.58822   0.13016   0.00000  Uiso   1.00
C842   C     0.40714   0.42199   0.01340   0.00000  Uiso   1.00
C843   C     0.34561   0.58563   0.37890   0.00000  Uiso   1.00
C844   C     0.40091   0.58249   0.20769   0.00000  Uiso   1.00
C845   C     0.36764   0.55965   0.20950   0.00000  Uiso   1.00
C846   C     0.30925   0.46586   0.05729   0.00000  Uiso   1.00
C847   C     0.34545   0.44197   0.05592   0.00000  Uiso   1.00
C848   C     0.33190   0.57106   0.42470   0.00000  Uiso   1.00
C849   C     0.35045   0.41473   0.09162   0.00000  Uiso   1.00
C850   C     0.35948   0.42621   0.34723   0.00000  Uiso   1.00
C851   C     0.29965   0.54331   0.17714   0.00000  Uiso   1.00
C852   C     0.33649   0.56418   0.17205   0.00000  Uiso   1.00
C853   C     0.37058   0.44285   0.25767   0.00000  Uiso   1.00
C854   C     0.40455   0.42044   0.25722   0.00000  Uiso   1.00
C855   C     0.35540   0.57505   0.46797   0.00000  Uiso   1.00
C856   C     0.30679   0.46108   0.30318   0.00000  Uiso   1.00
C857   C     0.34686   0.44288   0.30294   0.00000  Uiso   1.00
C858   C     0.37259   0.44358   0.01384   0.00000  Uiso   1.00
C859   C     0.39581   0.40713   0.34838   0.00000  Uiso   1.00
C860   C     0.41917   0.40380   0.30245   0.00000  Uiso   1.00
C861   C     0.39022   0.59195   0.46744   0.00000  Uiso   1.00
C862   C     0.39939   0.58874   0.71368   0.00000  Uiso   1.00
C863   C     0.41874   0.40126   0.55296   0.00000  Uiso   1.00
C864   C     0.36195   0.56989   0.71623   0.00000  Uiso   1.00
C865   C     0.31165   0.46590   0.55442   0.00000  Uiso   1.00
C866   C     0.35020   0.44696   0.55378   0.00000  Uiso   1.00
C867   C     0.39732   0.41079   0.84330   0.00000  Uiso   1.00
C868   C     0.33976   0.59463   0.63314   0.00000  Uiso   1.00
C869   C     0.35792   0.42059   0.59549   0.00000  Uiso   1.00
C870   C     0.33451   0.57030   0.92834   0.00000  Uiso   1.00
C871   C     0.34331   0.59061   0.88198   0.00000  Uiso   1.00
C872   C     0.29984   0.54612   0.67820   0.00000  Uiso   1.00
C873   C     0.33291   0.57243   0.67695   0.00000  Uiso   1.00
C874   C     0.37861   0.45502   0.75856   0.00000  Uiso   1.00
C875   C     0.29762   0.54637   0.93019   0.00000  Uiso   1.00
C876   C     0.41297   0.43222   0.75573   0.00000  Uiso   1.00
C877   C     0.36139   0.56930   0.96939   0.00000  Uiso   1.00
C878   C     0.30994   0.46910   0.80597   0.00000  Uiso   1.00
C879   C     0.35121   0.45177   0.80228   0.00000  Uiso   1.00
C880   C     0.36116   0.42964   0.84504   0.00000  Uiso   1.00
C881   C     0.39674   0.58885   0.96376   0.00000  Uiso   1.00
C882   C     0.42149   0.41063   0.79967   0.00000  Uiso   1.00
C883   C     0.37575   0.44668   0.51239   0.00000  Uiso   1.00
C884   C     0.40927   0.42397   0.51074   0.00000  Uiso   1.00
C885   C     0.40776   0.60674   0.16663   0.00000  Uiso   1.00
C886   C     0.40537   0.60623   0.42038   0.00000  Uiso   1.00
C887   C     0.44280   0.63006   0.17034   0.00000  Uiso   1.00
C888   C     0.38185   0.60415   0.37595   0.00000  Uiso   1.00
C889   C     0.30686   0.79773   0.29082   0.00000  Uiso   1.00
C890   C     0.34574   0.77688   0.03553   0.00000  Uiso   1.00
C891   C     0.45409   0.71340   0.04330   0.00000  Uiso   1.00
C892   C     0.41847   0.73786   0.04009   0.00000  Uiso   1.00
C893   C     0.35658   0.75965   0.08077   0.00000  Uiso   1.00
C894   C     0.39173   0.74081   0.08366   0.00000  Uiso   1.00
C895   C     0.44274   0.63055   0.42094   0.00000  Uiso   1.00
C896   C     0.37207   0.77604   0.24763   0.00000  Uiso   1.00
C897   C     0.40537   0.75511   0.24860   0.00000  Uiso   1.00
C898   C     0.37856   0.61097   0.12801   0.00000  Uiso   1.00
C899   C     0.34550   0.77798   0.29120   0.00000  Uiso   1.00
C900   C     0.45411   0.71195   0.29704   0.00000  Uiso   1.00
C901   C     0.41685   0.73647   0.29313   0.00000  Uiso   1.00
C902   C     0.35483   0.75660   0.33630   0.00000  Uiso   1.00
C903   C     0.39181   0.73823   0.33888   0.00000  Uiso   1.00
C904   C     0.37242   0.77749   0.49750   0.00000  Uiso   1.00
C905   C     0.40640   0.75668   0.49790   0.00000  Uiso   1.00
C906   C     0.38797   0.73457   0.83719   0.00000  Uiso   1.00
C907   C     0.40534   0.61031   0.92192   0.00000  Uiso   1.00
C908   C     0.43962   0.63475   0.66988   0.00000  Uiso   1.00
C909   C     0.34615   0.77787   0.53971   0.00000  Uiso   1.00
C910   C     0.45417   0.71180   0.54607   0.00000  Uiso   1.00
C911   C     0.41865   0.73822   0.54402   0.00000  Uiso   1.00
C912   C     0.35579   0.75752   0.58349   0.00000  Uiso   1.00
C913   C     0.39268   0.74042   0.58577   0.00000  Uiso   1.00
C914   C     0.44377   0.62996   0.91998   0.00000  Uiso   1.00
C915   C     0.37940   0.61054   0.88056   0.00000  Uiso   1.00
C916   C     0.37622   0.78328   0.75359   0.00000  Uiso   1.00
C917   C     0.41067   0.76209   0.75673   0.00000  Uiso   1.00
C918   C     0.34674   0.77901   0.79271   0.00000  Uiso   1.00
C919   C     0.45239   0.71274   0.79712   0.00000  Uiso   1.00
C920   C     0.41851   0.73907   0.79831   0.00000  Uiso   1.00
C921   C     0.35338   0.75406   0.83295   0.00000  Uiso   1.00
C922   C     0.37602   0.61542   0.62997   0.00000  Uiso   1.00
C923   C     0.40554   0.61311   0.67158   0.00000  Uiso   1.00
C924   C     0.37313   0.77735   0.99265   0.00000  Uiso   1.00
C925   C     0.40743   0.75438   0.99213   0.00000  Uiso   1.00
C926   C     0.30873   0.79941   0.79300   0.00000  Uiso   1.00
C927   C     0.39453   0.92280   0.21345   0.00000  Uiso   1.00
C928   C     0.35870   0.90275   0.21218   0.00000  Uiso   1.00
C929   C     0.37641   0.94847   0.12982   0.00000  Uiso   1.00
C930   C     0.34021   0.92855   0.13019   0.00000  Uiso   1.00
C931   C     0.43913   0.96971   0.17179   0.00000  Uiso   1.00
C932   C     0.40334   0.94678   0.17197   0.00000  Uiso   1.00
C933   C     0.29583   0.88274   0.17028   0.00000  Uiso   1.00
C934   C     0.33095   0.90718   0.17266   0.00000  Uiso   1.00
C935   C     0.39395   0.92338   0.45983   0.00000  Uiso   1.00
C936   C     0.35845   0.90341   0.46257   0.00000  Uiso   1.00
C937   C     0.37960   0.94369   0.37539   0.00000  Uiso   1.00
C938   C     0.34367   0.92363   0.37655   0.00000  Uiso   1.00
C939   C     0.44246   0.96392   0.41954   0.00000  Uiso   1.00
C940   C     0.40545   0.94240   0.41663   0.00000  Uiso   1.00
C941   C     0.29657   0.87977   0.41641   0.00000  Uiso   1.00
C942   C     0.33269   0.90237   0.41974   0.00000  Uiso   1.00
C943   C     0.30845   0.80043   0.03926   0.00000  Uiso   1.00
C944   C     0.39475   0.92051   0.71314   0.00000  Uiso   1.00
C945   C     0.35629   0.90323   0.71572   0.00000  Uiso   1.00
C946   C     0.37631   0.94962   0.63099   0.00000  Uiso   1.00
C947   C     0.34020   0.92865   0.63212   0.00000  Uiso   1.00
C948   C     0.44158   0.96618   0.67047   0.00000  Uiso   1.00
C949   C     0.40421   0.94479   0.67140   0.00000  Uiso   1.00
C950   C     0.29742   0.88039   0.66795   0.00000  Uiso   1.00
C951   C     0.33041   0.90554   0.67429   0.00000  Uiso   1.00
C952   C     0.39233   0.93033   0.96790   0.00000  Uiso   1.00
C953   C     0.35739   0.90932   0.96559   0.00000  Uiso   1.00
C954   C     0.38054   0.94525   0.87725   0.00000  Uiso   1.00
C955   C     0.34335   0.93000   0.87767   0.00000  Uiso   1.00
C956   C     0.44369   0.96672   0.92164   0.00000  Uiso   1.00
C957   C     0.40454   0.94812   0.92185   0.00000  Uiso   1.00
C958   C     0.29834   0.88286   0.91936   0.00000  Uiso   1.00
C959   C     0.33273   0.90861   0.92042   0.00000  Uiso   1.00
C960   C     0.30918   0.80028   0.54202   0.00000  Uiso   1.00
C961   C     0.62749   0.05221   0.00610   0.00000  Uiso   1.00
C962   C     0.60615   0.07525   0.08827   0.00000  Uiso   1.00
C963   C     0.64040   0.09591   0.09209   0.00000  Uiso   1.00
C964   C     0.55936   0.03580   0.04288   0.00000  Uiso   1.00
C965   C     0.59813   0.05646   0.04424   0.00000  Uiso   1.00
C966   C     0.70152   0.12329   0.04665   0.00000  Uiso   1.00
C967   C     0.66766   0.09730   0.04999   0.00000  Uiso   1.00
C968   C     0.60261   0.07929   0.33333   0.00000  Uiso   1.00
C969   C     0.63921   0.09890   0.33456   0.00000  Uiso   1.00
C970   C     0.62305   0.05355   0.25021   0.00000  Uiso   1.00
C971   C     0.65725   0.07446   0.25276   0.00000  Uiso   1.00
C972   C     0.55816   0.03373   0.29157   0.00000  Uiso   1.00
C973   C     0.59390   0.05650   0.29077   0.00000  Uiso   1.00
C974   C     0.70022   0.12402   0.29461   0.00000  Uiso   1.00
C975   C     0.66452   0.09955   0.29281   0.00000  Uiso   1.00
C976   C     0.65604   0.07930   0.49811   0.00000  Uiso   1.00
C977   C     0.66384   0.07299   0.00941   0.00000  Uiso   1.00
C978   C     0.62026   0.06076   0.49484   0.00000  Uiso   1.00
C979   C     0.69400   0.19931   0.42177   0.00000  Uiso   1.00
C980   C     0.60346   0.08448   0.58204   0.00000  Uiso   1.00
C981   C     0.63853   0.10460   0.58256   0.00000  Uiso   1.00
C982   C     0.55404   0.03979   0.54114   0.00000  Uiso   1.00
C983   C     0.59253   0.06248   0.53864   0.00000  Uiso   1.00
C984   C     0.70271   0.12226   0.54341   0.00000  Uiso   1.00
C985   C     0.66516   0.10144   0.54043   0.00000  Uiso   1.00
C986   C     0.60647   0.07719   0.83562   0.00000  Uiso   1.00
C987   C     0.64415   0.09613   0.83944   0.00000  Uiso   1.00
C988   C     0.62144   0.05967   0.74738   0.00000  Uiso   1.00
C989   C     0.65672   0.07933   0.75086   0.00000  Uiso   1.00
C990   C     0.55672   0.03760   0.78820   0.00000  Uiso   1.00
C991   C     0.59511   0.05866   0.79007   0.00000  Uiso   1.00
C992   C     0.70338   0.12225   0.79723   0.00000  Uiso   1.00
C993   C     0.66888   0.09688   0.79612   0.00000  Uiso   1.00
C994   C     0.69038   0.20211   0.16957   0.00000  Uiso   1.00
C995   C     0.64499   0.23997   0.46561   0.00000  Uiso   1.00
C996   C     0.59156   0.38943   0.29940   0.00000  Uiso   1.00
C997   C     0.61998   0.38342   0.25967   0.00000  Uiso   1.00
C998   C     0.55552   0.36931   0.30362   0.00000  Uiso   1.00
C999   C     0.58293   0.25923   0.42785   0.00000  Uiso   1.00
C1000  C     0.61036   0.26004   0.46841   0.00000  Uiso   1.00
C1001  C     0.62344   0.21877   0.13025   0.00000  Uiso   1.00
C1002  C     0.58643   0.23768   0.13532   0.00000  Uiso   1.00
C1003  C     0.65253   0.22059   0.16949   0.00000  Uiso   1.00
C1004  C     0.54166   0.28117   0.18060   0.00000  Uiso   1.00
C1005  C     0.57724   0.25920   0.17817   0.00000  Uiso   1.00
C1006  C     0.64125   0.24055   0.21417   0.00000  Uiso   1.00
C1007  C     0.60481   0.25820   0.21851   0.00000  Uiso   1.00
C1008  C     0.55725   0.36437   0.05324   0.00000  Uiso   1.00
C1009  C     0.62717   0.21955   0.38191   0.00000  Uiso   1.00
C1010  C     0.59089   0.23700   0.38666   0.00000  Uiso   1.00
C1011  C     0.59285   0.38896   0.05125   0.00000  Uiso   1.00
C1012  C     0.65455   0.22007   0.42271   0.00000  Uiso   1.00
C1013  C     0.54707   0.28443   0.43131   0.00000  Uiso   1.00
C1014  C     0.61979   0.38632   0.00827   0.00000  Uiso   1.00
C1015  C     0.64710   0.24511   0.96612   0.00000  Uiso   1.00
C1016  C     0.59435   0.38682   0.80153   0.00000  Uiso   1.00
C1017  C     0.61354   0.26931   0.96614   0.00000  Uiso   1.00
C1018  C     0.58401   0.26582   0.92758   0.00000  Uiso   1.00
C1019  C     0.55689   0.36498   0.80261   0.00000  Uiso   1.00
C1020  C     0.62413   0.22014   0.62927   0.00000  Uiso   1.00
C1021  C     0.58747   0.23946   0.63337   0.00000  Uiso   1.00
C1022  C     0.65240   0.22218   0.67236   0.00000  Uiso   1.00
C1023  C     0.54018   0.28135   0.68067   0.00000  Uiso   1.00
C1024  C     0.57568   0.25585   0.67905   0.00000  Uiso   1.00
C1025  C     0.63983   0.24098   0.71803   0.00000  Uiso   1.00
C1026  C     0.60182   0.25707   0.72092   0.00000  Uiso   1.00
C1027  C     0.55845   0.36340   0.55405   0.00000  Uiso   1.00
C1028  C     0.62751   0.22390   0.88044   0.00000  Uiso   1.00
C1029  C     0.59202   0.24444   0.88486   0.00000  Uiso   1.00
C1030  C     0.62024   0.38514   0.75915   0.00000  Uiso   1.00
C1031  C     0.65477   0.22533   0.92133   0.00000  Uiso   1.00
C1032  C     0.54666   0.28843   0.93098   0.00000  Uiso   1.00
C1033  C     0.59630   0.38397   0.55463   0.00000  Uiso   1.00
C1034  C     0.61966   0.38574   0.50976   0.00000  Uiso   1.00
C1035  C     0.69064   0.20123   0.67126   0.00000  Uiso   1.00
C1036  C     0.69151   0.20469   0.92056   0.00000  Uiso   1.00
C1037  C     0.58277   0.59350   0.16819   0.00000  Uiso   1.00
C1038  C     0.59877   0.41661   0.33657   0.00000  Uiso   1.00
C1039  C     0.60574   0.59099   0.46923   0.00000  Uiso   1.00
C1040  C     0.62771   0.54926   0.12880   0.00000  Uiso   1.00
C1041  C     0.59208   0.56911   0.12737   0.00000  Uiso   1.00
C1042  C     0.63685   0.43217   0.09306   0.00000  Uiso   1.00
C1043  C     0.68971   0.53498   0.17483   0.00000  Uiso   1.00
C1044  C     0.65269   0.55360   0.17177   0.00000  Uiso   1.00
C1045  C     0.65465   0.40569   0.25887   0.00000  Uiso   1.00
C1046  C     0.64447   0.57898   0.21339   0.00000  Uiso   1.00
C1047  C     0.69979   0.45503   0.05065   0.00000  Uiso   1.00
C1048  C     0.66455   0.43009   0.05234   0.00000  Uiso   1.00
C1049  C     0.62549   0.55051   0.37875   0.00000  Uiso   1.00
C1050  C     0.66163   0.43065   0.29892   0.00000  Uiso   1.00
C1051  C     0.59129   0.57060   0.38161   0.00000  Uiso   1.00
C1052  C     0.63292   0.43796   0.33695   0.00000  Uiso   1.00
C1053  C     0.68866   0.53224   0.42496   0.00000  Uiso   1.00
C1054  C     0.65157   0.55066   0.42380   0.00000  Uiso   1.00
C1055  C     0.64017   0.57000   0.46842   0.00000  Uiso   1.00
C1056  C     0.69886   0.45232   0.30115   0.00000  Uiso   1.00
C1057  C     0.58136   0.59322   0.42389   0.00000  Uiso   1.00
C1058  C     0.65289   0.40964   0.00830   0.00000  Uiso   1.00
C1059  C     0.60625   0.59717   0.21303   0.00000  Uiso   1.00
C1060  C     0.60444   0.40920   0.09550   0.00000  Uiso   1.00
C1061  C     0.65537   0.40581   0.76008   0.00000  Uiso   1.00
C1062  C     0.65478   0.40756   0.50904   0.00000  Uiso   1.00
C1063  C     0.60136   0.40965   0.84371   0.00000  Uiso   1.00
C1064  C     0.62511   0.55273   0.63040   0.00000  Uiso   1.00
C1065  C     0.57956   0.59454   0.67390   0.00000  Uiso   1.00
C1066  C     0.59048   0.57362   0.63096   0.00000  Uiso   1.00
C1067  C     0.64019   0.42615   0.59692   0.00000  Uiso   1.00
C1068  C     0.68768   0.52985   0.67763   0.00000  Uiso   1.00
C1069  C     0.65057   0.55264   0.67398   0.00000  Uiso   1.00
C1070  C     0.60573   0.59668   0.71497   0.00000  Uiso   1.00
C1071  C     0.64324   0.57781   0.71412   0.00000  Uiso   1.00
C1072  C     0.69963   0.45365   0.55218   0.00000  Uiso   1.00
C1073  C     0.66470   0.42879   0.55387   0.00000  Uiso   1.00
C1074  C     0.62464   0.55411   0.88182   0.00000  Uiso   1.00
C1075  C     0.59359   0.57750   0.87740   0.00000  Uiso   1.00
C1076  C     0.63585   0.42982   0.84596   0.00000  Uiso   1.00
C1077  C     0.68866   0.53312   0.92987   0.00000  Uiso   1.00
C1078  C     0.65123   0.55622   0.92649   0.00000  Uiso   1.00
C1079  C     0.58210   0.59753   0.92220   0.00000  Uiso   1.00
C1080  C     0.63919   0.57714   0.96984   0.00000  Uiso   1.00
C1081  C     0.69847   0.45370   0.80550   0.00000  Uiso   1.00
C1082  C     0.66452   0.42820   0.80405   0.00000  Uiso   1.00
C1083  C     0.60544   0.59738   0.96695   0.00000  Uiso   1.00
C1084  C     0.60848   0.40139   0.59852   0.00000  Uiso   1.00
C1085  C     0.54712   0.61684   0.16569   0.00000  Uiso   1.00
C1086  C     0.60522   0.74363   0.08396   0.00000  Uiso   1.00
C1087  C     0.63892   0.76684   0.08409   0.00000  Uiso   1.00
C1088  C     0.56011   0.70078   0.03978   0.00000  Uiso   1.00
C1089  C     0.59807   0.72013   0.04229   0.00000  Uiso   1.00
C1090  C     0.70295   0.78554   0.04798   0.00000  Uiso   1.00
C1091  C     0.66726   0.76188   0.04577   0.00000  Uiso   1.00
C1092  C     0.54979   0.61992   0.42003   0.00000  Uiso   1.00
C1093  C     0.61238   0.73536   0.33993   0.00000  Uiso   1.00
C1094  C     0.64626   0.75703   0.33922   0.00000  Uiso   1.00
C1095  C     0.62442   0.72081   0.24824   0.00000  Uiso   1.00
C1096  C     0.65840   0.74280   0.24899   0.00000  Uiso   1.00
C1097  C     0.55750   0.70145   0.28992   0.00000  Uiso   1.00
C1098  C     0.59837   0.72022   0.29129   0.00000  Uiso   1.00
C1099  C     0.70223   0.78775   0.29667   0.00000  Uiso   1.00
C1100  C     0.66915   0.76260   0.29373   0.00000  Uiso   1.00
C1101  C     0.66181   0.73801   0.00563   0.00000  Uiso   1.00
C1102  C     0.62699   0.71753   0.00230   0.00000  Uiso   1.00
C1103  C     0.54593   0.62080   0.67012   0.00000  Uiso   1.00
C1104  C     0.60176   0.74724   0.58264   0.00000  Uiso   1.00
C1105  C     0.63887   0.76606   0.58780   0.00000  Uiso   1.00
C1106  C     0.55833   0.70077   0.54202   0.00000  Uiso   1.00
C1107  C     0.59569   0.72125   0.54342   0.00000  Uiso   1.00
C1108  C     0.70130   0.79045   0.54634   0.00000  Uiso   1.00
C1109  C     0.66628   0.76464   0.54631   0.00000  Uiso   1.00
C1110  C     0.54839   0.62112   0.91712   0.00000  Uiso   1.00
C1111  C     0.60655   0.73974   0.83623   0.00000  Uiso   1.00
C1112  C     0.64273   0.75995   0.83794   0.00000  Uiso   1.00
C1113  C     0.62395   0.71554   0.75077   0.00000  Uiso   1.00
C1114  C     0.65860   0.73759   0.75185   0.00000  Uiso   1.00
C1115  C     0.55937   0.69830   0.79189   0.00000  Uiso   1.00
C1116  C     0.59734   0.71731   0.79246   0.00000  Uiso   1.00
C1117  C     0.70199   0.78665   0.79361   0.00000  Uiso   1.00
C1118  C     0.66897   0.76085   0.79601   0.00000  Uiso   1.00
C1119  C     0.66156   0.73765   0.50764   0.00000  Uiso   1.00
C1120  C     0.62750   0.71463   0.50666   0.00000  Uiso   1.00
C1121  C     0.62799   0.89017   0.12461   0.00000  Uiso   1.00
C1122  C     0.59324   0.91094   0.12255   0.00000  Uiso   1.00
C1123  C     0.69136   0.87033   0.16965   0.00000  Uiso   1.00
C1124  C     0.65313   0.89123   0.16745   0.00000  Uiso   1.00
C1125  C     0.54731   0.95786   0.16724   0.00000  Uiso   1.00
C1126  C     0.58015   0.92924   0.16714   0.00000  Uiso   1.00
C1127  C     0.63972   0.91098   0.21114   0.00000  Uiso   1.00
C1128  C     0.60300   0.92784   0.21223   0.00000  Uiso   1.00
C1129  C     0.62636   0.88665   0.37884   0.00000  Uiso   1.00
C1130  C     0.59298   0.91041   0.37434   0.00000  Uiso   1.00
C1131  C     0.69183   0.87023   0.42349   0.00000  Uiso   1.00
C1132  C     0.65394   0.89015   0.42225   0.00000  Uiso   1.00
C1133  C     0.54995   0.95726   0.41700   0.00000  Uiso   1.00
C1134  C     0.58316   0.93216   0.41690   0.00000  Uiso   1.00
C1135  C     0.64518   0.91447   0.46204   0.00000  Uiso   1.00
C1136  C     0.61064   0.93506   0.45969   0.00000  Uiso   1.00
C1137  C     0.63150   0.89017   0.62558   0.00000  Uiso   1.00
C1138  C     0.59985   0.91428   0.62424   0.00000  Uiso   1.00
C1139  C     0.69571   0.87018   0.67067   0.00000  Uiso   1.00
C1140  C     0.65763   0.89056   0.66928   0.00000  Uiso   1.00
C1141  C     0.55058   0.95663   0.66801   0.00000  Uiso   1.00
C1142  C     0.58817   0.93430   0.66819   0.00000  Uiso   1.00
C1143  C     0.64846   0.91413   0.71058   0.00000  Uiso   1.00
C1144  C     0.61233   0.93245   0.71341   0.00000  Uiso   1.00
C1145  C     0.63074   0.88852   0.86995   0.00000  Uiso   1.00
C1146  C     0.59539   0.90845   0.87118   0.00000  Uiso   1.00
C1147  C     0.69241   0.86814   0.91861   0.00000  Uiso   1.00
C1148  C     0.65278   0.88585   0.91617   0.00000  Uiso   1.00
C1149  C     0.54833   0.95277   0.91730   0.00000  Uiso   1.00
C1150  C     0.58376   0.92866   0.91782   0.00000  Uiso   1.00
C1151  C     0.64353   0.90827   0.95951   0.00000  Uiso   1.00
C1152  C     0.60600   0.92598   0.96068   0.00000  Uiso   1.00
C1153  C     0.80724   0.13409   0.03802   0.00000  Uiso   1.00
C1154  C     0.84762   0.11587   0.04122   0.00000  Uiso   1.00
C1155  C     0.95247   0.04688   0.05078   0.00000  Uiso   1.00
C1156  C     0.91910   0.07613   0.05139   0.00000  Uiso   1.00
C1157  C     0.85414   0.08958   0.08101   0.00000  Uiso   1.00
C1158  C     0.88966   0.07217   0.08800   0.00000  Uiso   1.00
C1159  C     0.87645   0.11416   0.24882   0.00000  Uiso   1.00
C1160  C     0.91265   0.09355   0.25125   0.00000  Uiso   1.00
C1161  C     0.80889   0.13536   0.28959   0.00000  Uiso   1.00
C1162  C     0.84752   0.11309   0.29073   0.00000  Uiso   1.00
C1163  C     0.95606   0.04831   0.29751   0.00000  Uiso   1.00
C1164  C     0.91926   0.07061   0.29318   0.00000  Uiso   1.00
C1165  C     0.85493   0.08995   0.33415   0.00000  Uiso   1.00
C1166  C     0.89273   0.07253   0.33491   0.00000  Uiso   1.00
C1167  C     0.87720   0.11762   0.00331   0.00000  Uiso   1.00
C1168  C     0.91168   0.09666   0.00541   0.00000  Uiso   1.00
C1169  C     0.81251   0.13742   0.54229   0.00000  Uiso   1.00
C1170  C     0.85283   0.11874   0.54544   0.00000  Uiso   1.00
C1171  C     0.95468   0.04714   0.54576   0.00000  Uiso   1.00
C1172  C     0.92179   0.07334   0.54649   0.00000  Uiso   1.00
C1173  C     0.85919   0.09487   0.58610   0.00000  Uiso   1.00
C1174  C     0.89245   0.07241   0.58596   0.00000  Uiso   1.00
C1175  C     0.87619   0.12169   0.75454   0.00000  Uiso   1.00
C1176  C     0.91413   0.10239   0.75971   0.00000  Uiso   1.00
C1177  C     0.80868   0.13805   0.79105   0.00000  Uiso   1.00
C1178  C     0.84686   0.11826   0.79289   0.00000  Uiso   1.00
C1179  C     0.95485   0.05030   0.79877   0.00000  Uiso   1.00
C1180  C     0.91875   0.07415   0.79529   0.00000  Uiso   1.00
C1181  C     0.85283   0.09320   0.83180   0.00000  Uiso   1.00
C1182  C     0.88843   0.06940   0.83145   0.00000  Uiso   1.00
C1183  C     0.88084   0.11926   0.50300   0.00000  Uiso   1.00
C1184  C     0.91620   0.09767   0.50653   0.00000  Uiso   1.00
C1185  C     0.89498   0.25531   0.21655   0.00000  Uiso   1.00
C1186  C     0.85711   0.23673   0.21401   0.00000  Uiso   1.00
C1187  C     0.88144   0.28345   0.13128   0.00000  Uiso   1.00
C1188  C     0.84890   0.26079   0.12555   0.00000  Uiso   1.00
C1189  C     0.94417   0.29851   0.17936   0.00000  Uiso   1.00
C1190  C     0.90598   0.27922   0.17501   0.00000  Uiso   1.00
C1191  C     0.79873   0.21539   0.16428   0.00000  Uiso   1.00
C1192  C     0.83482   0.23760   0.16697   0.00000  Uiso   1.00
C1193  C     0.95619   0.38135   0.05409   0.00000  Uiso   1.00
C1194  C     0.88876   0.25929   0.46543   0.00000  Uiso   1.00
C1195  C     0.85130   0.24106   0.46483   0.00000  Uiso   1.00
C1196  C     0.87774   0.27878   0.37748   0.00000  Uiso   1.00
C1197  C     0.84096   0.26125   0.37636   0.00000  Uiso   1.00
C1198  C     0.94042   0.29904   0.42615   0.00000  Uiso   1.00
C1199  C     0.90051   0.27991   0.42284   0.00000  Uiso   1.00
C1200  C     0.79561   0.21648   0.41404   0.00000  Uiso   1.00
C1201  C     0.82880   0.24162   0.41918   0.00000  Uiso   1.00
C1202  C     0.95112   0.37778   0.30380   0.00000  Uiso   1.00
C1203  C     0.88745   0.26351   0.72005   0.00000  Uiso   1.00
C1204  C     0.85197   0.24322   0.71754   0.00000  Uiso   1.00
C1205  C     0.87341   0.28607   0.63314   0.00000  Uiso   1.00
C1206  C     0.83811   0.26500   0.63258   0.00000  Uiso   1.00
C1207  C     0.93547   0.30627   0.67821   0.00000  Uiso   1.00
C1208  C     0.89802   0.28416   0.67802   0.00000  Uiso   1.00
C1209  C     0.79597   0.21425   0.66867   0.00000  Uiso   1.00
C1210  C     0.83018   0.24122   0.67343   0.00000  Uiso   1.00
C1211  C     0.95118   0.38066   0.55432   0.00000  Uiso   1.00
C1212  C     0.88611   0.26542   0.97228   0.00000  Uiso   1.00
C1213  C     0.85120   0.24553   0.96851   0.00000  Uiso   1.00
C1214  C     0.87624   0.28711   0.88372   0.00000  Uiso   1.00
C1215  C     0.83866   0.26848   0.88358   0.00000  Uiso   1.00
C1216  C     0.94092   0.30108   0.93183   0.00000  Uiso   1.00
C1217  C     0.90065   0.28477   0.92852   0.00000  Uiso   1.00
C1218  C     0.79684   0.21667   0.91634   0.00000  Uiso   1.00
C1219  C     0.83047   0.24225   0.92170   0.00000  Uiso   1.00
C1220  C     0.95245   0.38315   0.80819   0.00000  Uiso   1.00
C1221  C     0.83091   0.56725   0.42447   0.00000  Uiso   1.00
C1222  C     0.89048   0.58813   0.22140   0.00000  Uiso   1.00
C1223  C     0.89528   0.40768   0.09578   0.00000  Uiso   1.00
C1224  C     0.92171   0.40730   0.05430   0.00000  Uiso   1.00
C1225  C     0.85436   0.42338   0.34309   0.00000  Uiso   1.00
C1226  C     0.79585   0.54375   0.42227   0.00000  Uiso   1.00
C1227  C     0.87554   0.44548   0.00601   0.00000  Uiso   1.00
C1228  C     0.85301   0.57041   0.22015   0.00000  Uiso   1.00
C1229  C     0.80901   0.46651   0.04603   0.00000  Uiso   1.00
C1230  C     0.84650   0.44402   0.04593   0.00000  Uiso   1.00
C1231  C     0.84199   0.58702   0.13009   0.00000  Uiso   1.00
C1232  C     0.85795   0.42535   0.09302   0.00000  Uiso   1.00
C1233  C     0.84243   0.58752   0.38133   0.00000  Uiso   1.00
C1234  C     0.79438   0.54545   0.17425   0.00000  Uiso   1.00
C1235  C     0.82880   0.57039   0.17658   0.00000  Uiso   1.00
C1236  C     0.87721   0.44806   0.26048   0.00000  Uiso   1.00
C1237  C     0.90966   0.42600   0.26208   0.00000  Uiso   1.00
C1238  C     0.85565   0.56798   0.46830   0.00000  Uiso   1.00
C1239  C     0.80882   0.46577   0.29680   0.00000  Uiso   1.00
C1240  C     0.84745   0.44342   0.29805   0.00000  Uiso   1.00
C1241  C     0.89053   0.40145   0.34624   0.00000  Uiso   1.00
C1242  C     0.88953   0.58974   0.46857   0.00000  Uiso   1.00
C1243  C     0.91279   0.42787   0.01156   0.00000  Uiso   1.00
C1244  C     0.91642   0.40128   0.30335   0.00000  Uiso   1.00
C1245  C     0.91809   0.40573   0.55397   0.00000  Uiso   1.00
C1246  C     0.89197   0.40742   0.59690   0.00000  Uiso   1.00
C1247  C     0.88778   0.40651   0.84580   0.00000  Uiso   1.00
C1248  C     0.87381   0.44906   0.50936   0.00000  Uiso   1.00
C1249  C     0.91646   0.40919   0.80516   0.00000  Uiso   1.00
C1250  C     0.89299   0.58865   0.96786   0.00000  Uiso   1.00
C1251  C     0.88994   0.59373   0.71865   0.00000  Uiso   1.00
C1252  C     0.85236   0.57694   0.72096   0.00000  Uiso   1.00
C1253  C     0.80830   0.46731   0.54835   0.00000  Uiso   1.00
C1254  C     0.84583   0.44574   0.55018   0.00000  Uiso   1.00
C1255  C     0.79656   0.54568   0.92243   0.00000  Uiso   1.00
C1256  C     0.83130   0.56819   0.92403   0.00000  Uiso   1.00
C1257  C     0.85518   0.42686   0.59420   0.00000  Uiso   1.00
C1258  C     0.79496   0.54841   0.67726   0.00000  Uiso   1.00
C1259  C     0.82644   0.57618   0.67873   0.00000  Uiso   1.00
C1260  C     0.87106   0.44958   0.75677   0.00000  Uiso   1.00
C1261  C     0.85314   0.42653   0.84232   0.00000  Uiso   1.00
C1262  C     0.90709   0.42987   0.76205   0.00000  Uiso   1.00
C1263  C     0.85687   0.56786   0.96704   0.00000  Uiso   1.00
C1264  C     0.80415   0.46629   0.79832   0.00000  Uiso   1.00
C1265  C     0.84399   0.44729   0.79901   0.00000  Uiso   1.00
C1266  C     0.90882   0.42570   0.51031   0.00000  Uiso   1.00
C1267  C     0.84221   0.59122   0.88375   0.00000  Uiso   1.00
C1268  C     0.83743   0.59652   0.63665   0.00000  Uiso   1.00
C1269  C     0.90494   0.60397   0.17344   0.00000  Uiso   1.00
C1270  C     0.94178   0.62678   0.17544   0.00000  Uiso   1.00
C1271  C     0.87650   0.61171   0.38127   0.00000  Uiso   1.00
C1272  C     0.84588   0.77933   0.04968   0.00000  Uiso   1.00
C1273  C     0.94945   0.70818   0.05434   0.00000  Uiso   1.00
C1274  C     0.91377   0.73055   0.05160   0.00000  Uiso   1.00
C1275  C     0.85402   0.75457   0.09011   0.00000  Uiso   1.00
C1276  C     0.88610   0.73120   0.09158   0.00000  Uiso   1.00
C1277  C     0.93887   0.63369   0.42781   0.00000  Uiso   1.00
C1278  C     0.90171   0.61166   0.42590   0.00000  Uiso   1.00
C1279  C     0.87535   0.78045   0.25639   0.00000  Uiso   1.00
C1280  C     0.90941   0.75694   0.26072   0.00000  Uiso   1.00
C1281  C     0.87963   0.60484   0.13089   0.00000  Uiso   1.00
C1282  C     0.84503   0.77912   0.29611   0.00000  Uiso   1.00
C1283  C     0.94991   0.70916   0.30245   0.00000  Uiso   1.00
C1284  C     0.91391   0.73206   0.30022   0.00000  Uiso   1.00
C1285  C     0.85323   0.75817   0.33999   0.00000  Uiso   1.00
C1286  C     0.88495   0.73220   0.33975   0.00000  Uiso   1.00
C1287  C     0.87594   0.78253   0.01028   0.00000  Uiso   1.00
C1288  C     0.90960   0.75731   0.01154   0.00000  Uiso   1.00
C1289  C     0.90495   0.60826   0.92433   0.00000  Uiso   1.00
C1290  C     0.87813   0.60963   0.88145   0.00000  Uiso   1.00
C1291  C     0.87612   0.77920   0.50141   0.00000  Uiso   1.00
C1292  C     0.89997   0.61437   0.67602   0.00000  Uiso   1.00
C1293  C     0.94017   0.63288   0.67727   0.00000  Uiso   1.00
C1294  C     0.84563   0.77632   0.53943   0.00000  Uiso   1.00
C1295  C     0.95278   0.70944   0.55230   0.00000  Uiso   1.00
C1296  C     0.91700   0.73440   0.54795   0.00000  Uiso   1.00
C1297  C     0.85067   0.75197   0.58196   0.00000  Uiso   1.00
C1298  C     0.88609   0.73122   0.58508   0.00000  Uiso   1.00
C1299  C     0.94312   0.62728   0.92541   0.00000  Uiso   1.00
C1300  C     0.87381   0.61701   0.63333   0.00000  Uiso   1.00
C1301  C     0.87549   0.77850   0.75325   0.00000  Uiso   1.00
C1302  C     0.91261   0.75902   0.75698   0.00000  Uiso   1.00
C1303  C     0.84711   0.77750   0.79490   0.00000  Uiso   1.00
C1304  C     0.95613   0.71413   0.80268   0.00000  Uiso   1.00
C1305  C     0.92191   0.73868   0.80234   0.00000  Uiso   1.00
C1306  C     0.85926   0.75910   0.84130   0.00000  Uiso   1.00
C1307  C     0.89505   0.74072   0.84501   0.00000  Uiso   1.00
C1308  C     0.91239   0.75713   0.50594   0.00000  Uiso   1.00
C1309  C     0.80756   0.79490   0.79016   0.00000  Uiso   1.00
C1310  C     0.80825   0.79917   0.53915   0.00000  Uiso   1.00
C1311  C     0.80766   0.80232   0.29537   0.00000  Uiso   1.00
C1312  C     0.89130   0.92893   0.21583   0.00000  Uiso   1.00
C1313  C     0.85462   0.90869   0.21608   0.00000  Uiso   1.00
C1314  C     0.87654   0.94901   0.12987   0.00000  Uiso   1.00
C1315  C     0.84376   0.92565   0.12822   0.00000  Uiso   1.00
C1316  C     0.94187   0.96730   0.17281   0.00000  Uiso   1.00
C1317  C     0.90290   0.94874   0.17239   0.00000  Uiso   1.00
C1318  C     0.79932   0.87882   0.16941   0.00000  Uiso   1.00
C1319  C     0.83173   0.90575   0.17096   0.00000  Uiso   1.00
C1320  C     0.89151   0.92560   0.46490   0.00000  Uiso   1.00
C1321  C     0.85565   0.90546   0.46418   0.00000  Uiso   1.00
C1322  C     0.87996   0.94505   0.37490   0.00000  Uiso   1.00
C1323  C     0.84391   0.92514   0.37256   0.00000  Uiso   1.00
C1324  C     0.94196   0.96751   0.42344   0.00000  Uiso   1.00
C1325  C     0.90410   0.94462   0.41959   0.00000  Uiso   1.00
C1326  C     0.79838   0.88053   0.41512   0.00000  Uiso   1.00
C1327  C     0.83226   0.90517   0.41727   0.00000  Uiso   1.00
C1328  C     0.80877   0.80132   0.04673   0.00000  Uiso   1.00
C1329  C     0.90121   0.91671   0.71007   0.00000  Uiso   1.00
C1330  C     0.86426   0.89643   0.70885   0.00000  Uiso   1.00
C1331  C     0.87870   0.94783   0.63229   0.00000  Uiso   1.00
C1332  C     0.84284   0.92605   0.63085   0.00000  Uiso   1.00
C1333  C     0.94341   0.96498   0.67223   0.00000  Uiso   1.00
C1334  C     0.90729   0.94257   0.67248   0.00000  Uiso   1.00
C1335  C     0.80136   0.87710   0.66558   0.00000  Uiso   1.00
C1336  C     0.83617   0.90124   0.66974   0.00000  Uiso   1.00
C1337  C     0.89078   0.92585   0.96027   0.00000  Uiso   1.00
C1338  C     0.85340   0.90840   0.96124   0.00000  Uiso   1.00
C1339  C     0.87815   0.94450   0.87088   0.00000  Uiso   1.00
C1340  C     0.84437   0.92088   0.87136   0.00000  Uiso   1.00
C1341  C     0.93945   0.96812   0.91942   0.00000  Uiso   1.00
C1342  C     0.90182   0.94638   0.91657   0.00000  Uiso   1.00
C1343  C     0.79850   0.87782   0.91277   0.00000  Uiso   1.00
C1344  C     0.83067   0.90325   0.91588   0.00000  Uiso   1.00
O1345  O     0.22314   0.12536   0.00759   0.00000  Uiso   1.00
O1346  O     0.05036   0.01744   0.24732   0.00000  Uiso   1.00
O1347  O     0.04733   0.01450   0.00065   0.00000  Uiso   1.00
O1348  O     0.20215   0.18337   0.21793   0.00000  Uiso   1.00
O1349  O     0.20879   0.13729   0.09660   0.00000  Uiso   1.00
O1350  O     0.03276   0.03335   0.08170   0.00000  Uiso   1.00
O1351  O     0.22512   0.12507   0.26011   0.00000  Uiso   1.00
O1352  O     0.03886   0.03254   0.33387   0.00000  Uiso   1.00
O1353  O     0.20026   0.18588   0.46869   0.00000  Uiso   1.00
O1354  O     0.20880   0.14115   0.34482   0.00000  Uiso   1.00
O1355  O     0.04841   0.02159   0.49773   0.00000  Uiso   1.00
O1356  O     0.21630   0.19975   0.13281   0.00000  Uiso   1.00
O1357  O     0.04890   0.01888   0.74858   0.00000  Uiso   1.00
O1358  O     0.20566   0.14216   0.84264   0.00000  Uiso   1.00
O1359  O     0.03752   0.03592   0.83376   0.00000  Uiso   1.00
O1360  O     0.20783   0.14092   0.59535   0.00000  Uiso   1.00
O1361  O     0.03785   0.03313   0.58337   0.00000  Uiso   1.00
O1362  O     0.22531   0.12694   0.75917   0.00000  Uiso   1.00
O1363  O     0.19801   0.18641   0.71801   0.00000  Uiso   1.00
O1364  O     0.19820   0.18901   0.97130   0.00000  Uiso   1.00
O1365  O     0.22395   0.12658   0.51068   0.00000  Uiso   1.00
O1366  O     0.04944   0.35256   0.25626   0.00000  Uiso   1.00
O1367  O     0.03930   0.30041   0.38101   0.00000  Uiso   1.00
O1368  O     0.03921   0.36384   0.34413   0.00000  Uiso   1.00
O1369  O     0.21277   0.20303   0.38486   0.00000  Uiso   1.00
O1370  O     0.02869   0.29325   0.21867   0.00000  Uiso   1.00
O1371  O     0.04005   0.36607   0.09149   0.00000  Uiso   1.00
O1372  O     0.04332   0.30381   0.13082   0.00000  Uiso   1.00
O1373  O     0.02610   0.29155   0.46981   0.00000  Uiso   1.00
O1374  O     0.04846   0.35046   0.00480   0.00000  Uiso   1.00
O1375  O     0.03517   0.36739   0.59175   0.00000  Uiso   1.00
O1376  O     0.04510   0.35378   0.75731   0.00000  Uiso   1.00
O1377  O     0.03655   0.30077   0.87851   0.00000  Uiso   1.00
O1378  O     0.03671   0.36772   0.84400   0.00000  Uiso   1.00
O1379  O     0.04719   0.35148   0.50767   0.00000  Uiso   1.00
O1380  O     0.03967   0.30612   0.63565   0.00000  Uiso   1.00
O1381  O     0.02401   0.29147   0.96613   0.00000  Uiso   1.00
O1382  O     0.01715   0.29608   0.71818   0.00000  Uiso   1.00
O1383  O     0.20753   0.20209   0.63229   0.00000  Uiso   1.00
O1384  O     0.21436   0.20439   0.88816   0.00000  Uiso   1.00
O1385  O     0.22450   0.45783   0.34197   0.00000  Uiso   1.00
O1386  O     0.21299   0.53019   0.46607   0.00000  Uiso   1.00
O1387  O     0.21414   0.46608   0.00492   0.00000  Uiso   1.00
O1388  O     0.22754   0.45355   0.09023   0.00000  Uiso   1.00
O1389  O     0.21505   0.53282   0.21404   0.00000  Uiso   1.00
O1390  O     0.20870   0.46995   0.25660   0.00000  Uiso   1.00
O1391  O     0.20170   0.51507   0.13119   0.00000  Uiso   1.00
O1392  O     0.20386   0.51686   0.38194   0.00000  Uiso   1.00
O1393  O     0.21139   0.46677   0.50681   0.00000  Uiso   1.00
O1394  O     0.22866   0.45645   0.84165   0.00000  Uiso   1.00
O1395  O     0.21274   0.52697   0.96705   0.00000  Uiso   1.00
O1396  O     0.21275   0.53325   0.71609   0.00000  Uiso   1.00
O1397  O     0.22833   0.45807   0.59235   0.00000  Uiso   1.00
O1398  O     0.21077   0.46816   0.75894   0.00000  Uiso   1.00
O1399  O     0.20303   0.51761   0.63209   0.00000  Uiso   1.00
O1400  O     0.20307   0.51631   0.88166   0.00000  Uiso   1.00
O1401  O     0.04726   0.67822   0.25503   0.00000  Uiso   1.00
O1402  O     0.22070   0.79644   0.00124   0.00000  Uiso   1.00
O1403  O     0.03959   0.63490   0.38247   0.00000  Uiso   1.00
O1404  O     0.04552   0.68639   0.00317   0.00000  Uiso   1.00
O1405  O     0.03763   0.69768   0.34150   0.00000  Uiso   1.00
O1406  O     0.02376   0.62211   0.46636   0.00000  Uiso   1.00
O1407  O     0.03759   0.63258   0.12716   0.00000  Uiso   1.00
O1408  O     0.02235   0.62120   0.21410   0.00000  Uiso   1.00
O1409  O     0.21904   0.79446   0.25255   0.00000  Uiso   1.00
O1410  O     0.03670   0.69674   0.09250   0.00000  Uiso   1.00
O1411  O     0.03896   0.62986   0.87790   0.00000  Uiso   1.00
O1412  O     0.04758   0.68192   0.75321   0.00000  Uiso   1.00
O1413  O     0.22162   0.79190   0.75465   0.00000  Uiso   1.00
O1414  O     0.04055   0.69400   0.84061   0.00000  Uiso   1.00
O1415  O     0.22739   0.79020   0.50873   0.00000  Uiso   1.00
O1416  O     0.03186   0.62407   0.96731   0.00000  Uiso   1.00
O1417  O     0.03917   0.63412   0.62938   0.00000  Uiso   1.00
O1418  O     0.02263   0.62276   0.71390   0.00000  Uiso   1.00
O1419  O     0.03466   0.69843   0.58611   0.00000  Uiso   1.00
O1420  O     0.04917   0.67996   0.50629   0.00000  Uiso   1.00
O1421  O     0.03181   0.96005   0.45865   0.00000  Uiso   1.00
O1422  O     0.21169   0.80651   0.08886   0.00000  Uiso   1.00
O1423  O     0.21648   0.86781   0.38067   0.00000  Uiso   1.00
O1424  O     0.20826   0.80646   0.33950   0.00000  Uiso   1.00
O1425  O     0.04268   0.97258   0.12217   0.00000  Uiso   1.00
O1426  O     0.21325   0.86941   0.12587   0.00000  Uiso   1.00
O1427  O     0.02621   0.96084   0.21035   0.00000  Uiso   1.00
O1428  O     0.20300   0.85472   0.21323   0.00000  Uiso   1.00
O1429  O     0.20119   0.84950   0.46493   0.00000  Uiso   1.00
O1430  O     0.04101   0.97019   0.37178   0.00000  Uiso   1.00
O1431  O     0.21034   0.80161   0.84124   0.00000  Uiso   1.00
O1432  O     0.02254   0.95789   0.95850   0.00000  Uiso   1.00
O1433  O     0.04488   0.96946   0.62645   0.00000  Uiso   1.00
O1434  O     0.21790   0.86946   0.63097   0.00000  Uiso   1.00
O1435  O     0.02825   0.95800   0.71252   0.00000  Uiso   1.00
O1436  O     0.20505   0.85321   0.71689   0.00000  Uiso   1.00
O1437  O     0.20339   0.85714   0.96662   0.00000  Uiso   1.00
O1438  O     0.04209   0.97357   0.87564   0.00000  Uiso   1.00
O1439  O     0.21257   0.86685   0.87709   0.00000  Uiso   1.00
O1440  O     0.20834   0.80793   0.59109   0.00000  Uiso   1.00
O1441  O     0.28722   0.13720   0.33790   0.00000  Uiso   1.00
O1442  O     0.45840   0.03108   0.33824   0.00000  Uiso   1.00
O1443  O     0.47240   0.04074   0.00049   0.00000  Uiso   1.00
O1444  O     0.29742   0.14968   0.25192   0.00000  Uiso   1.00
O1445  O     0.28550   0.13248   0.08433   0.00000  Uiso   1.00
O1446  O     0.46049   0.03357   0.08774   0.00000  Uiso   1.00
O1447  O     0.47373   0.04533   0.25498   0.00000  Uiso   1.00
O1448  O     0.29111   0.19345   0.12751   0.00000  Uiso   1.00
O1449  O     0.29600   0.15251   0.00060   0.00000  Uiso   1.00
O1450  O     0.29021   0.19925   0.37794   0.00000  Uiso   1.00
O1451  O     0.28130   0.13383   0.83478   0.00000  Uiso   1.00
O1452  O     0.28345   0.13599   0.58821   0.00000  Uiso   1.00
O1453  O     0.46081   0.02981   0.84160   0.00000  Uiso   1.00
O1454  O     0.46934   0.03829   0.50300   0.00000  Uiso   1.00
O1455  O     0.47039   0.03791   0.75383   0.00000  Uiso   1.00
O1456  O     0.29709   0.15610   0.75491   0.00000  Uiso   1.00
O1457  O     0.45995   0.03004   0.59154   0.00000  Uiso   1.00
O1458  O     0.29573   0.15123   0.50317   0.00000  Uiso   1.00
O1459  O     0.29023   0.19761   0.87833   0.00000  Uiso   1.00
O1460  O     0.27296   0.20853   0.20914   0.00000  Uiso   1.00
O1461  O     0.45382   0.31380   0.38192   0.00000  Uiso   1.00
O1462  O     0.45875   0.29785   0.21760   0.00000  Uiso   1.00
O1463  O     0.47086   0.37312   0.34188   0.00000  Uiso   1.00
O1464  O     0.45011   0.31428   0.13003   0.00000  Uiso   1.00
O1465  O     0.46284   0.29706   0.46723   0.00000  Uiso   1.00
O1466  O     0.47207   0.37166   0.08958   0.00000  Uiso   1.00
O1467  O     0.45835   0.36007   0.25502   0.00000  Uiso   1.00
O1468  O     0.27152   0.21038   0.46375   0.00000  Uiso   1.00
O1469  O     0.45648   0.36054   0.00396   0.00000  Uiso   1.00
O1470  O     0.45997   0.36289   0.75590   0.00000  Uiso   1.00
O1471  O     0.45249   0.31496   0.88140   0.00000  Uiso   1.00
O1472  O     0.45937   0.30071   0.71273   0.00000  Uiso   1.00
O1473  O     0.47393   0.37382   0.84041   0.00000  Uiso   1.00
O1474  O     0.44758   0.31900   0.62720   0.00000  Uiso   1.00
O1475  O     0.47897   0.37492   0.58687   0.00000  Uiso   1.00
O1476  O     0.46475   0.29848   0.96338   0.00000  Uiso   1.00
O1477  O     0.27231   0.21155   0.96203   0.00000  Uiso   1.00
O1478  O     0.26762   0.21420   0.71193   0.00000  Uiso   1.00
O1479  O     0.45867   0.35946   0.50580   0.00000  Uiso   1.00
O1480  O     0.28618   0.20095   0.62682   0.00000  Uiso   1.00
O1481  O     0.29919   0.48114   0.34409   0.00000  Uiso   1.00
O1482  O     0.27673   0.53979   0.38543   0.00000  Uiso   1.00
O1483  O     0.29835   0.48040   0.09973   0.00000  Uiso   1.00
O1484  O     0.28353   0.46321   0.26178   0.00000  Uiso   1.00
O1485  O     0.28984   0.46650   0.01322   0.00000  Uiso   1.00
O1486  O     0.27546   0.54020   0.13711   0.00000  Uiso   1.00
O1487  O     0.29099   0.52882   0.47101   0.00000  Uiso   1.00
O1488  O     0.29441   0.52700   0.22085   0.00000  Uiso   1.00
O1489  O     0.29823   0.48320   0.84961   0.00000  Uiso   1.00
O1490  O     0.27447   0.54163   0.88938   0.00000  Uiso   1.00
O1491  O     0.30054   0.48193   0.59818   0.00000  Uiso   1.00
O1492  O     0.27779   0.54066   0.63614   0.00000  Uiso   1.00
O1493  O     0.29006   0.53059   0.72389   0.00000  Uiso   1.00
O1494  O     0.28908   0.52928   0.97428   0.00000  Uiso   1.00
O1495  O     0.28977   0.46508   0.51298   0.00000  Uiso   1.00
O1496  O     0.28813   0.46917   0.76352   0.00000  Uiso   1.00
O1497  O     0.46639   0.62934   0.38017   0.00000  Uiso   1.00
O1498  O     0.47302   0.70549   0.25219   0.00000  Uiso   1.00
O1499  O     0.45224   0.64561   0.46431   0.00000  Uiso   1.00
O1500  O     0.46063   0.63681   0.12538   0.00000  Uiso   1.00
O1501  O     0.45569   0.64114   0.21561   0.00000  Uiso   1.00
O1502  O     0.46274   0.69950   0.08820   0.00000  Uiso   1.00
O1503  O     0.45855   0.69181   0.33948   0.00000  Uiso   1.00
O1504  O     0.28496   0.79799   0.33179   0.00000  Uiso   1.00
O1505  O     0.47280   0.70647   0.00098   0.00000  Uiso   1.00
O1506  O     0.46682   0.63073   0.87810   0.00000  Uiso   1.00
O1507  O     0.47159   0.70879   0.75291   0.00000  Uiso   1.00
O1508  O     0.45838   0.69289   0.83877   0.00000  Uiso   1.00
O1509  O     0.45123   0.64769   0.71401   0.00000  Uiso   1.00
O1510  O     0.46245   0.63369   0.62924   0.00000  Uiso   1.00
O1511  O     0.46122   0.69517   0.58980   0.00000  Uiso   1.00
O1512  O     0.45329   0.64633   0.96389   0.00000  Uiso   1.00
O1513  O     0.28597   0.79876   0.58193   0.00000  Uiso   1.00
O1514  O     0.47355   0.70403   0.50339   0.00000  Uiso   1.00
O1515  O     0.29626   0.81689   0.24976   0.00000  Uiso   1.00
O1516  O     0.46140   0.96781   0.37710   0.00000  Uiso   1.00
O1517  O     0.27270   0.87542   0.45587   0.00000  Uiso   1.00
O1518  O     0.27464   0.87690   0.21233   0.00000  Uiso   1.00
O1519  O     0.45162   0.97903   0.46431   0.00000  Uiso   1.00
O1520  O     0.45077   0.98521   0.21426   0.00000  Uiso   1.00
O1521  O     0.29326   0.85979   0.37293   0.00000  Uiso   1.00
O1522  O     0.28995   0.86671   0.12388   0.00000  Uiso   1.00
O1523  O     0.46047   0.96980   0.12887   0.00000  Uiso   1.00
O1524  O     0.28929   0.80316   0.08432   0.00000  Uiso   1.00
O1525  O     0.29874   0.81652   0.49774   0.00000  Uiso   1.00
O1526  O     0.28782   0.80219   0.83698   0.00000  Uiso   1.00
O1527  O     0.45574   0.97946   0.96647   0.00000  Uiso   1.00
O1528  O     0.29706   0.81288   0.75015   0.00000  Uiso   1.00
O1529  O     0.46541   0.96763   0.88007   0.00000  Uiso   1.00
O1530  O     0.27757   0.87273   0.71135   0.00000  Uiso   1.00
O1531  O     0.27914   0.87446   0.96295   0.00000  Uiso   1.00
O1532  O     0.45550   0.97541   0.71714   0.00000  Uiso   1.00
O1533  O     0.28926   0.86653   0.87491   0.00000  Uiso   1.00
O1534  O     0.29315   0.86224   0.62315   0.00000  Uiso   1.00
O1535  O     0.46243   0.96845   0.62771   0.00000  Uiso   1.00
O1536  O     0.29550   0.81411   0.99544   0.00000  Uiso   1.00
O1537  O     0.70632   0.18499   0.46350   0.00000  Uiso   1.00
O1538  O     0.54626   0.02188   0.24762   0.00000  Uiso   1.00
O1539  O     0.53536   0.03254   0.33437   0.00000  Uiso   1.00
O1540  O     0.54352   0.02423   0.49603   0.00000  Uiso   1.00
O1541  O     0.70728   0.13986   0.34063   0.00000  Uiso   1.00
O1542  O     0.70869   0.14019   0.08894   0.00000  Uiso   1.00
O1543  O     0.53504   0.03647   0.08345   0.00000  Uiso   1.00
O1544  O     0.72294   0.12817   0.25439   0.00000  Uiso   1.00
O1545  O     0.70141   0.18805   0.21450   0.00000  Uiso   1.00
O1546  O     0.72355   0.12756   0.00367   0.00000  Uiso   1.00
O1547  O     0.70224   0.18966   0.96296   0.00000  Uiso   1.00
O1548  O     0.72738   0.12614   0.50201   0.00000  Uiso   1.00
O1549  O     0.54495   0.02136   0.74644   0.00000  Uiso   1.00
O1550  O     0.53865   0.03418   0.83305   0.00000  Uiso   1.00
O1551  O     0.70135   0.18660   0.71587   0.00000  Uiso   1.00
O1552  O     0.70916   0.14088   0.84120   0.00000  Uiso   1.00
O1553  O     0.70923   0.13815   0.58781   0.00000  Uiso   1.00
O1554  O     0.53271   0.03530   0.58356   0.00000  Uiso   1.00
O1555  O     0.72408   0.12729   0.75552   0.00000  Uiso   1.00
O1556  O     0.54962   0.01918   0.99943   0.00000  Uiso   1.00
O1557  O     0.53664   0.36369   0.26064   0.00000  Uiso   1.00
O1558  O     0.54618   0.35574   0.34853   0.00000  Uiso   1.00
O1559  O     0.52844   0.29277   0.38632   0.00000  Uiso   1.00
O1560  O     0.53617   0.29924   0.22393   0.00000  Uiso   1.00
O1561  O     0.52394   0.29004   0.13511   0.00000  Uiso   1.00
O1562  O     0.54040   0.30227   0.47537   0.00000  Uiso   1.00
O1563  O     0.54699   0.35201   0.09914   0.00000  Uiso   1.00
O1564  O     0.71427   0.20457   0.12805   0.00000  Uiso   1.00
O1565  O     0.53160   0.36749   0.01479   0.00000  Uiso   1.00
O1566  O     0.71496   0.20172   0.38042   0.00000  Uiso   1.00
O1567  O     0.52030   0.28907   0.63795   0.00000  Uiso   1.00
O1568  O     0.53591   0.36467   0.76029   0.00000  Uiso   1.00
O1569  O     0.52311   0.29146   0.88862   0.00000  Uiso   1.00
O1570  O     0.54540   0.35055   0.84548   0.00000  Uiso   1.00
O1571  O     0.54039   0.30429   0.97516   0.00000  Uiso   1.00
O1572  O     0.54858   0.34410   0.59627   0.00000  Uiso   1.00
O1573  O     0.53707   0.30029   0.72241   0.00000  Uiso   1.00
O1574  O     0.53372   0.36562   0.51376   0.00000  Uiso   1.00
O1575  O     0.71250   0.20380   0.87846   0.00000  Uiso   1.00
O1576  O     0.71223   0.20100   0.62806   0.00000  Uiso   1.00
O1577  O     0.70122   0.51953   0.47072   0.00000  Uiso   1.00
O1578  O     0.70834   0.46717   0.34656   0.00000  Uiso   1.00
O1579  O     0.71335   0.53530   0.13439   0.00000  Uiso   1.00
O1580  O     0.70746   0.47106   0.09470   0.00000  Uiso   1.00
O1581  O     0.69949   0.51766   0.21851   0.00000  Uiso   1.00
O1582  O     0.72035   0.45760   0.25724   0.00000  Uiso   1.00
O1583  O     0.71027   0.53132   0.38335   0.00000  Uiso   1.00
O1584  O     0.72315   0.45890   0.00916   0.00000  Uiso   1.00
O1585  O     0.70472   0.47221   0.84937   0.00000  Uiso   1.00
O1586  O     0.71114   0.53221   0.63716   0.00000  Uiso   1.00
O1587  O     0.69790   0.51654   0.72225   0.00000  Uiso   1.00
O1588  O     0.72244   0.45724   0.50988   0.00000  Uiso   1.00
O1589  O     0.72208   0.45743   0.76478   0.00000  Uiso   1.00
O1590  O     0.70141   0.52090   0.97341   0.00000  Uiso   1.00
O1591  O     0.71235   0.53477   0.88813   0.00000  Uiso   1.00
O1592  O     0.70852   0.46929   0.59697   0.00000  Uiso   1.00
O1593  O     0.54690   0.68365   0.24687   0.00000  Uiso   1.00
O1594  O     0.72600   0.79032   0.00527   0.00000  Uiso   1.00
O1595  O     0.53542   0.70029   0.33391   0.00000  Uiso   1.00
O1596  O     0.54397   0.63773   0.37636   0.00000  Uiso   1.00
O1597  O     0.72474   0.79270   0.25461   0.00000  Uiso   1.00
O1598  O     0.52533   0.62360   0.46031   0.00000  Uiso   1.00
O1599  O     0.53892   0.63194   0.11953   0.00000  Uiso   1.00
O1600  O     0.52994   0.62489   0.20977   0.00000  Uiso   1.00
O1601  O     0.54066   0.69627   0.08275   0.00000  Uiso   1.00
O1602  O     0.54697   0.68483   0.49721   0.00000  Uiso   1.00
O1603  O     0.53506   0.70188   0.83222   0.00000  Uiso   1.00
O1604  O     0.54558   0.68439   0.74657   0.00000  Uiso   1.00
O1605  O     0.72409   0.79426   0.50445   0.00000  Uiso   1.00
O1606  O     0.54287   0.63764   0.87302   0.00000  Uiso   1.00
O1607  O     0.54629   0.68742   0.99690   0.00000  Uiso   1.00
O1608  O     0.72096   0.79159   0.74883   0.00000  Uiso   1.00
O1609  O     0.52619   0.62611   0.95810   0.00000  Uiso   1.00
O1610  O     0.53867   0.63440   0.62383   0.00000  Uiso   1.00
O1611  O     0.52238   0.62500   0.70915   0.00000  Uiso   1.00
O1612  O     0.53645   0.69911   0.58443   0.00000  Uiso   1.00
O1613  O     0.54006   0.97072   0.37263   0.00000  Uiso   1.00
O1614  O     0.52958   0.96193   0.45960   0.00000  Uiso   1.00
O1615  O     0.71556   0.86966   0.38167   0.00000  Uiso   1.00
O1616  O     0.53901   0.97184   0.12353   0.00000  Uiso   1.00
O1617  O     0.71336   0.86843   0.12725   0.00000  Uiso   1.00
O1618  O     0.52476   0.96362   0.20912   0.00000  Uiso   1.00
O1619  O     0.70099   0.85391   0.21522   0.00000  Uiso   1.00
O1620  O     0.70079   0.85193   0.46461   0.00000  Uiso   1.00
O1621  O     0.70861   0.80581   0.34066   0.00000  Uiso   1.00
O1622  O     0.71007   0.80297   0.09118   0.00000  Uiso   1.00
O1623  O     0.70955   0.80667   0.59020   0.00000  Uiso   1.00
O1624  O     0.71512   0.86583   0.87582   0.00000  Uiso   1.00
O1625  O     0.52825   0.95823   0.96173   0.00000  Uiso   1.00
O1626  O     0.53995   0.97175   0.62328   0.00000  Uiso   1.00
O1627  O     0.71779   0.86978   0.62961   0.00000  Uiso   1.00
O1628  O     0.52949   0.95919   0.71066   0.00000  Uiso   1.00
O1629  O     0.70468   0.85290   0.71238   0.00000  Uiso   1.00
O1630  O     0.70213   0.85308   0.96173   0.00000  Uiso   1.00
O1631  O     0.54317   0.97086   0.87442   0.00000  Uiso   1.00
O1632  O     0.71008   0.80488   0.83804   0.00000  Uiso   1.00
O1633  O     0.78655   0.13606   0.33272   0.00000  Uiso   1.00
O1634  O     0.97537   0.04088   0.25536   0.00000  Uiso   1.00
O1635  O     0.96084   0.03046   0.33997   0.00000  Uiso   1.00
O1636  O     0.95801   0.02796   0.09460   0.00000  Uiso   1.00
O1637  O     0.79819   0.15140   0.24836   0.00000  Uiso   1.00
O1638  O     0.97517   0.04064   0.00881   0.00000  Uiso   1.00
O1639  O     0.78579   0.13689   0.08008   0.00000  Uiso   1.00
O1640  O     0.79267   0.19786   0.12070   0.00000  Uiso   1.00
O1641  O     0.80144   0.15079   0.49700   0.00000  Uiso   1.00
O1642  O     0.79057   0.19810   0.37045   0.00000  Uiso   1.00
O1643  O     0.79745   0.14904   0.74637   0.00000  Uiso   1.00
O1644  O     0.78331   0.13618   0.83063   0.00000  Uiso   1.00
O1645  O     0.78721   0.13578   0.58153   0.00000  Uiso   1.00
O1646  O     0.96009   0.03218   0.84168   0.00000  Uiso   1.00
O1647  O     0.79157   0.19662   0.62541   0.00000  Uiso   1.00
O1648  O     0.79024   0.19977   0.87188   0.00000  Uiso   1.00
O1649  O     0.97590   0.04261   0.75651   0.00000  Uiso   1.00
O1650  O     0.96109   0.02935   0.59026   0.00000  Uiso   1.00
O1651  O     0.97364   0.04035   0.50218   0.00000  Uiso   1.00
O1652  O     0.79770   0.14961   0.99429   0.00000  Uiso   1.00
O1653  O     0.97812   0.37574   0.01326   0.00000  Uiso   1.00
O1654  O     0.77645   0.21150   0.20651   0.00000  Uiso   1.00
O1655  O     0.97535   0.37488   0.26282   0.00000  Uiso   1.00
O1656  O     0.96239   0.29890   0.38340   0.00000  Uiso   1.00
O1657  O     0.95579   0.31418   0.22155   0.00000  Uiso   1.00
O1658  O     0.96090   0.36327   0.34884   0.00000  Uiso   1.00
O1659  O     0.96603   0.30120   0.13724   0.00000  Uiso   1.00
O1660  O     0.96400   0.36510   0.09805   0.00000  Uiso   1.00
O1661  O     0.77648   0.21034   0.45656   0.00000  Uiso   1.00
O1662  O     0.95084   0.31303   0.47107   0.00000  Uiso   1.00
O1663  O     0.97493   0.37952   0.76645   0.00000  Uiso   1.00
O1664  O     0.96033   0.30251   0.88988   0.00000  Uiso   1.00
O1665  O     0.94533   0.32455   0.72139   0.00000  Uiso   1.00
O1666  O     0.96047   0.36788   0.85207   0.00000  Uiso   1.00
O1667  O     0.96310   0.30258   0.64031   0.00000  Uiso   1.00
O1668  O     0.77526   0.21086   0.95941   0.00000  Uiso   1.00
O1669  O     0.95745   0.36303   0.59878   0.00000  Uiso   1.00
O1670  O     0.95224   0.31665   0.97430   0.00000  Uiso   1.00
O1671  O     0.77340   0.20927   0.70859   0.00000  Uiso   1.00
O1672  O     0.97411   0.37602   0.51261   0.00000  Uiso   1.00
O1673  O     0.78641   0.46619   0.33874   0.00000  Uiso   1.00
O1674  O     0.79751   0.48061   0.00110   0.00000  Uiso   1.00
O1675  O     0.78973   0.52761   0.37841   0.00000  Uiso   1.00
O1676  O     0.78459   0.46484   0.08590   0.00000  Uiso   1.00
O1677  O     0.78923   0.52718   0.13018   0.00000  Uiso   1.00
O1678  O     0.77416   0.53810   0.46381   0.00000  Uiso   1.00
O1679  O     0.77300   0.54011   0.21609   0.00000  Uiso   1.00
O1680  O     0.79570   0.47932   0.25144   0.00000  Uiso   1.00
O1681  O     0.78159   0.46469   0.84112   0.00000  Uiso   1.00
O1682  O     0.78713   0.52990   0.87922   0.00000  Uiso   1.00
O1683  O     0.78536   0.46689   0.59076   0.00000  Uiso   1.00
O1684  O     0.78857   0.53121   0.63337   0.00000  Uiso   1.00
O1685  O     0.77673   0.54065   0.96584   0.00000  Uiso   1.00
O1686  O     0.76969   0.54223   0.71736   0.00000  Uiso   1.00
O1687  O     0.79418   0.48444   0.75689   0.00000  Uiso   1.00
O1688  O     0.79586   0.47904   0.50455   0.00000  Uiso   1.00
O1689  O     0.96341   0.63169   0.38814   0.00000  Uiso   1.00
O1690  O     0.97128   0.70255   0.25961   0.00000  Uiso   1.00
O1691  O     0.95922   0.69317   0.09746   0.00000  Uiso   1.00
O1692  O     0.96245   0.62915   0.13291   0.00000  Uiso   1.00
O1693  O     0.95082   0.64171   0.22071   0.00000  Uiso   1.00
O1694  O     0.95940   0.69487   0.34780   0.00000  Uiso   1.00
O1695  O     0.96853   0.70131   0.01016   0.00000  Uiso   1.00
O1696  O     0.94883   0.64850   0.47106   0.00000  Uiso   1.00
O1697  O     0.78485   0.79936   0.08576   0.00000  Uiso   1.00
O1698  O     0.96214   0.63147   0.88258   0.00000  Uiso   1.00
O1699  O     0.97600   0.70820   0.76008   0.00000  Uiso   1.00
O1700  O     0.96178   0.69319   0.84405   0.00000  Uiso   1.00
O1701  O     0.95883   0.69320   0.59609   0.00000  Uiso   1.00
O1702  O     0.97688   0.70567   0.51107   0.00000  Uiso   1.00
O1703  O     0.96182   0.63081   0.63637   0.00000  Uiso   1.00
O1704  O     0.95521   0.64042   0.97102   0.00000  Uiso   1.00
O1705  O     0.95217   0.64688   0.72067   0.00000  Uiso   1.00
O1706  O     0.78532   0.79974   0.58102   0.00000  Uiso   1.00
O1707  O     0.78516   0.79617   0.83361   0.00000  Uiso   1.00
O1708  O     0.95653   0.97613   0.46874   0.00000  Uiso   1.00
O1709  O     0.96469   0.96769   0.38141   0.00000  Uiso   1.00
O1710  O     0.79745   0.81937   0.25182   0.00000  Uiso   1.00
O1711  O     0.79633   0.81418   0.49615   0.00000  Uiso   1.00
O1712  O     0.77509   0.87569   0.45776   0.00000  Uiso   1.00
O1713  O     0.96515   0.96595   0.13118   0.00000  Uiso   1.00
O1714  O     0.77628   0.87662   0.21138   0.00000  Uiso   1.00
O1715  O     0.95296   0.98333   0.21656   0.00000  Uiso   1.00
O1716  O     0.79120   0.86508   0.37091   0.00000  Uiso   1.00
O1717  O     0.78950   0.86445   0.12439   0.00000  Uiso   1.00
O1718  O     0.78424   0.80254   0.33629   0.00000  Uiso   1.00
O1719  O     0.79833   0.81498   0.00064   0.00000  Uiso   1.00
O1720  O     0.79607   0.80808   0.74569   0.00000  Uiso   1.00
O1721  O     0.94872   0.98250   0.96594   0.00000  Uiso   1.00
O1722  O     0.96475   0.96844   0.87992   0.00000  Uiso   1.00
O1723  O     0.77853   0.87381   0.95690   0.00000  Uiso   1.00
O1724  O     0.77964   0.87041   0.70880   0.00000  Uiso   1.00
O1725  O     0.95496   0.98090   0.71586   0.00000  Uiso   1.00
O1726  O     0.79264   0.85911   0.86967   0.00000  Uiso   1.00
O1727  O     0.79344   0.86225   0.62122   0.00000  Uiso   1.00
O1728  O     0.96581   0.96516   0.63030   0.00000  Uiso   1.00
O1729  O     0.24449   0.18962   0.05045   0.00000  Uiso   1.00
O1730  O     0.00663   0.02317   0.16772   0.00000  Uiso   1.00
O1731  O     0.00455   0.02286   0.41820   0.00000  Uiso   1.00
O1732  O     0.24487   0.19269   0.29608   0.00000  Uiso   1.00
O1733  O     0.24289   0.19404   0.54779   0.00000  Uiso   1.00
O1734  O     0.00572   0.02326   0.66864   0.00000  Uiso   1.00
O1735  O     0.24048   0.19416   0.79877   0.00000  Uiso   1.00
O1736  O     0.00303   0.02500   0.92279   0.00000  Uiso   1.00
O1737  O     0.00265   0.35489   0.42805   0.00000  Uiso   1.00
O1738  O     0.00487   0.35878   0.17524   0.00000  Uiso   1.00
O1739  O     0.00242   0.36178   0.67708   0.00000  Uiso   1.00
O1740  O     0.00684   0.35672   0.92688   0.00000  Uiso   1.00
O1741  O     0.24610   0.52251   0.29951   0.00000  Uiso   1.00
O1742  O     0.24696   0.52032   0.05159   0.00000  Uiso   1.00
O1743  O     0.24638   0.52459   0.80227   0.00000  Uiso   1.00
O1744  O     0.24746   0.52285   0.55141   0.00000  Uiso   1.00
O1745  O     0.00353   0.68875   0.42444   0.00000  Uiso   1.00
O1746  O     0.00043   0.68580   0.17746   0.00000  Uiso   1.00
O1747  O     0.00298   0.68930   0.67415   0.00000  Uiso   1.00
O1748  O     0.00461   0.68587   0.92340   0.00000  Uiso   1.00
O1749  O     0.24336   0.85656   0.29510   0.00000  Uiso   1.00
O1750  O     0.24871   0.85807   0.04321   0.00000  Uiso   1.00
O1751  O     0.24885   0.85730   0.54487   0.00000  Uiso   1.00
O1752  O     0.24640   0.85658   0.79443   0.00000  Uiso   1.00
O1753  O     0.25348   0.14566   0.42288   0.00000  Uiso   1.00
O1754  O     0.25353   0.14188   0.17462   0.00000  Uiso   1.00
O1755  O     0.25018   0.14618   0.92359   0.00000  Uiso   1.00
O1756  O     0.25059   0.14761   0.67419   0.00000  Uiso   1.00
O1757  O     0.49655   0.30885   0.05101   0.00000  Uiso   1.00
O1758  O     0.49673   0.30974   0.30271   0.00000  Uiso   1.00
O1759  O     0.49225   0.30966   0.80024   0.00000  Uiso   1.00
O1760  O     0.49386   0.30700   0.55144   0.00000  Uiso   1.00
O1761  O     0.25383   0.47618   0.42656   0.00000  Uiso   1.00
O1762  O     0.25510   0.47462   0.17713   0.00000  Uiso   1.00
O1763  O     0.25464   0.47641   0.67934   0.00000  Uiso   1.00
O1764  O     0.25485   0.47384   0.92776   0.00000  Uiso   1.00
O1765  O     0.49699   0.64136   0.29553   0.00000  Uiso   1.00
O1766  O     0.49411   0.64412   0.04382   0.00000  Uiso   1.00
O1767  O     0.49789   0.64327   0.79102   0.00000  Uiso   1.00
O1768  O     0.49821   0.64196   0.54344   0.00000  Uiso   1.00
O1769  O     0.49642   0.97779   0.04474   0.00000  Uiso   1.00
O1770  O     0.25382   0.81408   0.16909   0.00000  Uiso   1.00
O1771  O     0.49686   0.97781   0.29559   0.00000  Uiso   1.00
O1772  O     0.25343   0.80975   0.41952   0.00000  Uiso   1.00
O1773  O     0.49775   0.97837   0.54399   0.00000  Uiso   1.00
O1774  O     0.25105   0.81230   0.92119   0.00000  Uiso   1.00
O1775  O     0.49540   0.97607   0.79430   0.00000  Uiso   1.00
O1776  O     0.25610   0.81022   0.67008   0.00000  Uiso   1.00
O1777  O     0.50221   0.02622   0.16898   0.00000  Uiso   1.00
O1778  O     0.74732   0.19257   0.04105   0.00000  Uiso   1.00
O1779  O     0.50128   0.02345   0.41910   0.00000  Uiso   1.00
O1780  O     0.74717   0.19193   0.29250   0.00000  Uiso   1.00
O1781  O     0.50380   0.02178   0.67039   0.00000  Uiso   1.00
O1782  O     0.50534   0.02281   0.91853   0.00000  Uiso   1.00
O1783  O     0.74571   0.19277   0.79291   0.00000  Uiso   1.00
O1784  O     0.74899   0.19085   0.54192   0.00000  Uiso   1.00
O1785  O     0.74914   0.14356   0.66868   0.00000  Uiso   1.00
O1786  O     0.50016   0.35283   0.17722   0.00000  Uiso   1.00
O1787  O     0.50313   0.35614   0.42766   0.00000  Uiso   1.00
O1788  O     0.50201   0.35491   0.67527   0.00000  Uiso   1.00
O1789  O     0.50087   0.35684   0.92640   0.00000  Uiso   1.00
O1790  O     0.74417   0.52296   0.29940   0.00000  Uiso   1.00
O1791  O     0.74011   0.52286   0.80211   0.00000  Uiso   1.00
O1792  O     0.74380   0.52177   0.55226   0.00000  Uiso   1.00
O1793  O     0.74834   0.47719   0.92483   0.00000  Uiso   1.00
O1794  O     0.50257   0.68717   0.41988   0.00000  Uiso   1.00
O1795  O     0.50526   0.68657   0.16709   0.00000  Uiso   1.00
O1796  O     0.50586   0.68939   0.91788   0.00000  Uiso   1.00
O1797  O     0.50239   0.68999   0.66859   0.00000  Uiso   1.00
O1798  O     0.74389   0.85905   0.29506   0.00000  Uiso   1.00
O1799  O     0.74546   0.85673   0.04306   0.00000  Uiso   1.00
O1800  O     0.74495   0.85814   0.54357   0.00000  Uiso   1.00
O1801  O     0.74984   0.85354   0.79037   0.00000  Uiso   1.00
O1802  O     0.75319   0.14406   0.41857   0.00000  Uiso   1.00
O1803  O     0.75344   0.14708   0.16942   0.00000  Uiso   1.00
O1804  O     0.75271   0.14711   0.91646   0.00000  Uiso   1.00
O1805  O     0.99637   0.31060   0.05141   0.00000  Uiso   1.00
O1806  O     0.99821   0.31016   0.30059   0.00000  Uiso   1.00
O1807  O     0.99109   0.31481   0.80020   0.00000  Uiso   1.00
O1808  O     0.99492   0.31047   0.55456   0.00000  Uiso   1.00
O1809  O     0.75156   0.47565   0.42489   0.00000  Uiso   1.00
O1810  O     0.75144   0.47503   0.17288   0.00000  Uiso   1.00
O1811  O     0.75027   0.52321   0.04867   0.00000  Uiso   1.00
O1812  O     0.75204   0.47813   0.67671   0.00000  Uiso   1.00
O1813  O     0.99633   0.63934   0.30130   0.00000  Uiso   1.00
O1814  O     0.99722   0.64002   0.04930   0.00000  Uiso   1.00
O1815  O     0.99744   0.64089   0.79896   0.00000  Uiso   1.00
O1816  O     0.99546   0.64054   0.54903   0.00000  Uiso   1.00
O1817  O     0.75422   0.81110   0.41910   0.00000  Uiso   1.00
O1818  O     0.99854   0.97768   0.29380   0.00000  Uiso   1.00
O1819  O     0.99383   0.97512   0.04657   0.00000  Uiso   1.00
O1820  O     0.75385   0.81119   0.17071   0.00000  Uiso   1.00
O1821  O     0.75235   0.80878   0.66645   0.00000  Uiso   1.00
O1822  O     0.75261   0.80976   0.91684   0.00000  Uiso   1.00
O1823  O     0.99749   0.97800   0.79770   0.00000  Uiso   1.00
O1824  O     0.99986   0.97617   0.54421   0.00000  Uiso   1.00
