data_final_Br-Zn-SABVOH01
_audit_creation_date              2022-12-15
_audit_creation_method            'Materials Studio'
_symmetry_space_group_name_H-M    'P1'
_symmetry_Int_Tables_number       1
_symmetry_cell_setting            triclinic
loop_
_symmetry_equiv_pos_as_xyz
  x,y,z
_cell_length_a                    34.0401
_cell_length_b                    36.7883
_cell_length_c                    26.3392
_cell_angle_alpha                 90.0000
_cell_angle_beta                  90.0000
_cell_angle_gamma                 90.0000
loop_
_atom_site_label
_atom_site_type_symbol
_atom_site_fract_x
_atom_site_fract_y
_atom_site_fract_z
_atom_site_U_iso_or_equiv
_atom_site_adp_type
_atom_site_occupancy
Zn1    Zn    0.00202   0.00336   0.25399   0.00000  Uiso   1.00
Zn2    Zn    0.00078   0.00507   0.75481   0.00000  Uiso   1.00
Zn3    Zn    0.00393   0.00146   0.62858   0.00000  Uiso   1.00
Zn4    Zn    0.00113   0.00574   0.50486   0.00000  Uiso   1.00
Zn5    Zn    0.00155   0.33274   0.00510   0.00000  Uiso   1.00
Zn6    Zn    0.00185   0.33164   0.38154   0.00000  Uiso   1.00
Zn7    Zn    0.00162   0.33439   0.25727   0.00000  Uiso   1.00
Zn8    Zn    0.00200   0.33478   0.87698   0.00000  Uiso   1.00
Zn9    Zn    0.00147   0.33304   0.75448   0.00000  Uiso   1.00
Zn10   Zn    0.24927   0.49895   0.88924   0.00000  Uiso   1.00
Zn11   Zn    0.00116   0.66544   0.38017   0.00000  Uiso   1.00
Zn12   Zn    0.00244   0.66912   0.12810   0.00000  Uiso   1.00
Zn13   Zn    0.00125   0.66799   0.00281   0.00000  Uiso   1.00
Zn14   Zn    0.00179   0.66425   0.75169   0.00000  Uiso   1.00
Zn15   Zn    0.00193   0.66706   0.50694   0.00000  Uiso   1.00
Zn16   Zn    0.00445   0.66749   0.87473   0.00000  Uiso   1.00
Zn17   Zn    0.00145   0.99887   0.38073   0.00000  Uiso   1.00
Zn18   Zn    0.00084   0.99769   0.12970   0.00000  Uiso   1.00
Zn19   Zn    0.24960   0.83304   0.38552   0.00000  Uiso   1.00
Zn20   Zn    0.24975   0.83770   0.00704   0.00000  Uiso   1.00
Zn21   Zn    0.49507   0.00381   0.25600   0.00000  Uiso   1.00
Zn22   Zn    0.25176   0.16791   0.37655   0.00000  Uiso   1.00
Zn23   Zn    0.25221   0.16517   0.00544   0.00000  Uiso   1.00
Zn24   Zn    0.49794   0.00263   0.13047   0.00000  Uiso   1.00
Zn25   Zn    0.25061   0.16385   0.12819   0.00000  Uiso   1.00
Zn26   Zn    0.25004   0.16826   0.25398   0.00000  Uiso   1.00
Zn27   Zn    0.25168   0.16776   0.63001   0.00000  Uiso   1.00
Zn28   Zn    0.25023   0.16871   0.75344   0.00000  Uiso   1.00
Zn29   Zn    0.25454   0.16606   0.50219   0.00000  Uiso   1.00
Zn30   Zn    0.25150   0.16671   0.87947   0.00000  Uiso   1.00
Zn31   Zn    0.49825   0.33112   0.00923   0.00000  Uiso   1.00
Zn32   Zn    0.49881   0.32782   0.51408   0.00000  Uiso   1.00
Zn33   Zn    0.49884   0.33538   0.88543   0.00000  Uiso   1.00
Zn34   Zn    0.49464   0.33099   0.76191   0.00000  Uiso   1.00
Zn35   Zn    0.49907   0.33291   0.63954   0.00000  Uiso   1.00
Zn36   Zn    0.25420   0.49853   0.38960   0.00000  Uiso   1.00
Zn37   Zn    0.25253   0.49865   0.26177   0.00000  Uiso   1.00
Zn38   Zn    0.25362   0.49878   0.14058   0.00000  Uiso   1.00
Zn39   Zn    0.25098   0.50314   0.01424   0.00000  Uiso   1.00
Zn40   Zn    0.25181   0.50081   0.51559   0.00000  Uiso   1.00
Zn41   Zn    0.25198   0.50024   0.64080   0.00000  Uiso   1.00
Zn42   Zn    0.25260   0.49991   0.76584   0.00000  Uiso   1.00
Zn43   Zn    0.49940   0.66837   0.13904   0.00000  Uiso   1.00
Zn44   Zn    0.49896   0.99643   0.38284   0.00000  Uiso   1.00
Zn45   Zn    0.25007   0.83160   0.13096   0.00000  Uiso   1.00
Zn46   Zn    0.25064   0.82876   0.25946   0.00000  Uiso   1.00
Zn47   Zn    0.25049   0.83721   0.63726   0.00000  Uiso   1.00
Zn48   Zn    0.49918   0.99737   0.75415   0.00000  Uiso   1.00
Zn49   Zn    0.25206   0.83545   0.88315   0.00000  Uiso   1.00
Zn50   Zn    0.49886   0.99773   0.88183   0.00000  Uiso   1.00
Zn51   Zn    0.25350   0.83152   0.76153   0.00000  Uiso   1.00
Zn52   Zn    0.25001   0.83241   0.51079   0.00000  Uiso   1.00
Zn53   Zn    0.50062   0.00013   0.00789   0.00000  Uiso   1.00
Zn54   Zn    0.74930   0.16529   0.75903   0.00000  Uiso   1.00
Zn55   Zn    0.50181   0.00090   0.63044   0.00000  Uiso   1.00
Zn56   Zn    0.50220   0.00091   0.50720   0.00000  Uiso   1.00
Zn57   Zn    0.50291   0.33023   0.13540   0.00000  Uiso   1.00
Zn58   Zn    0.50221   0.33156   0.38781   0.00000  Uiso   1.00
Zn59   Zn    0.50124   0.33129   0.26074   0.00000  Uiso   1.00
Zn60   Zn    0.74746   0.50132   0.63222   0.00000  Uiso   1.00
Zn61   Zn    0.74962   0.49879   0.75482   0.00000  Uiso   1.00
Zn62   Zn    0.50316   0.66542   0.26847   0.00000  Uiso   1.00
Zn63   Zn    0.50503   0.66853   0.39087   0.00000  Uiso   1.00
Zn64   Zn    0.50077   0.66704   0.01411   0.00000  Uiso   1.00
Zn65   Zn    0.50284   0.66547   0.51515   0.00000  Uiso   1.00
Zn66   Zn    0.50026   0.66651   0.76706   0.00000  Uiso   1.00
Zn67   Zn    0.50262   0.66720   0.88945   0.00000  Uiso   1.00
Zn68   Zn    0.50190   0.66441   0.64159   0.00000  Uiso   1.00
Zn69   Zn    0.74945   0.83639   0.25905   0.00000  Uiso   1.00
Zn70   Zn    0.74975   0.83336   0.88015   0.00000  Uiso   1.00
Zn71   Zn    0.74760   0.83537   0.50935   0.00000  Uiso   1.00
Zn72   Zn    0.75274   0.16240   0.26188   0.00000  Uiso   1.00
Zn73   Zn    0.75223   0.16465   0.13616   0.00000  Uiso   1.00
Zn74   Zn    0.75439   0.16524   0.01030   0.00000  Uiso   1.00
Zn75   Zn    0.75096   0.15860   0.38497   0.00000  Uiso   1.00
Zn76   Zn    0.75197   0.16758   0.88510   0.00000  Uiso   1.00
Zn77   Zn    0.75079   0.16441   0.50897   0.00000  Uiso   1.00
Zn78   Zn    0.99819   0.00103   0.87662   0.00000  Uiso   1.00
Zn79   Zn    0.75202   0.17056   0.63417   0.00000  Uiso   1.00
Zn80   Zn    0.99701   0.33238   0.13047   0.00000  Uiso   1.00
Zn81   Zn    0.99849   0.33092   0.50750   0.00000  Uiso   1.00
Zn82   Zn    0.99735   0.33349   0.63178   0.00000  Uiso   1.00
Zn83   Zn    0.75212   0.50377   0.12954   0.00000  Uiso   1.00
Zn84   Zn    0.75246   0.50083   0.25743   0.00000  Uiso   1.00
Zn85   Zn    0.75254   0.50221   0.38268   0.00000  Uiso   1.00
Zn86   Zn    0.75074   0.50149   0.00506   0.00000  Uiso   1.00
Zn87   Zn    0.75025   0.50265   0.50860   0.00000  Uiso   1.00
Zn88   Zn    0.75079   0.49795   0.87902   0.00000  Uiso   1.00
Zn89   Zn    0.99901   0.66661   0.25339   0.00000  Uiso   1.00
Zn90   Zn    0.99686   0.66556   0.63018   0.00000  Uiso   1.00
Zn91   Zn    0.75010   0.83334   0.00729   0.00000  Uiso   1.00
Zn92   Zn    0.75023   0.83620   0.38308   0.00000  Uiso   1.00
Zn93   Zn    0.99791   0.99502   0.00412   0.00000  Uiso   1.00
Zn94   Zn    0.75022   0.83692   0.13640   0.00000  Uiso   1.00
Zn95   Zn    0.75006   0.83608   0.63354   0.00000  Uiso   1.00
Zn96   Zn    0.75273   0.83664   0.75810   0.00000  Uiso   1.00
Br97   Br    0.18727   0.06353   0.46645   0.00000  Uiso   1.00
Br98   Br    0.13034   0.14151   0.15953   0.00000  Uiso   1.00
Br99   Br    0.06402   0.10529   0.41857   0.00000  Uiso   1.00
Br100  Br    0.19337   0.06410   0.23695   0.00000  Uiso   1.00
Br101  Br    0.05243   0.11793   0.89262   0.00000  Uiso   1.00
Br102  Br    0.20383   0.05226   0.75375   0.00000  Uiso   1.00
Br103  Br    0.11553   0.03134   0.96193   0.00000  Uiso   1.00
Br104  Br    0.07083   0.10092   0.65991   0.00000  Uiso   1.00
Br105  Br    0.05656   0.22017   0.02569   0.00000  Uiso   1.00
Br106  Br    0.17688   0.26345   0.08354   0.00000  Uiso   1.00
Br107  Br    0.05722   0.22848   0.28350   0.00000  Uiso   1.00
Br108  Br    0.18648   0.26967   0.34689   0.00000  Uiso   1.00
Br109  Br    0.18367   0.39967   0.17327   0.00000  Uiso   1.00
Br110  Br    0.18636   0.39662   0.41512   0.00000  Uiso   1.00
Br111  Br    0.18939   0.39115   0.65728   0.00000  Uiso   1.00
Br112  Br    0.05276   0.22114   0.77949   0.00000  Uiso   1.00
Br113  Br    0.19144   0.27696   0.86159   0.00000  Uiso   1.00
Br114  Br    0.18429   0.26997   0.60002   0.00000  Uiso   1.00
Br115  Br    0.06542   0.23035   0.54081   0.00000  Uiso   1.00
Br116  Br    0.12364   0.34981   0.75185   0.00000  Uiso   1.00
Br117  Br    0.06339   0.43772   0.23020   0.00000  Uiso   1.00
Br118  Br    0.17788   0.59595   0.10774   0.00000  Uiso   1.00
Br119  Br    0.05243   0.56268   0.29335   0.00000  Uiso   1.00
Br120  Br    0.05353   0.55910   0.03243   0.00000  Uiso   1.00
Br121  Br    0.05670   0.43889   0.48421   0.00000  Uiso   1.00
Br122  Br    0.18538   0.59295   0.35084   0.00000  Uiso   1.00
Br123  Br    0.12369   0.49562   0.90151   0.00000  Uiso   1.00
Br124  Br    0.06032   0.56382   0.54367   0.00000  Uiso   1.00
Br125  Br    0.06219   0.56454   0.79199   0.00000  Uiso   1.00
Br126  Br    0.18439   0.59535   0.60024   0.00000  Uiso   1.00
Br127  Br    0.05748   0.44354   0.99021   0.00000  Uiso   1.00
Br128  Br    0.19635   0.72397   0.49600   0.00000  Uiso   1.00
Br129  Br    0.06590   0.77099   0.16301   0.00000  Uiso   1.00
Br130  Br    0.12163   0.67912   0.23142   0.00000  Uiso   1.00
Br131  Br    0.12064   0.69445   0.71787   0.00000  Uiso   1.00
Br132  Br    0.19347   0.72596   0.97815   0.00000  Uiso   1.00
Br133  Br    0.05553   0.77463   0.66100   0.00000  Uiso   1.00
Br134  Br    0.19667   0.60540   0.87020   0.00000  Uiso   1.00
Br135  Br    0.13633   0.86331   0.28745   0.00000  Uiso   1.00
Br136  Br    0.20303   0.94443   0.36343   0.00000  Uiso   1.00
Br137  Br    0.05875   0.89195   0.02169   0.00000  Uiso   1.00
Br138  Br    0.11921   0.97110   0.08836   0.00000  Uiso   1.00
Br139  Br    0.13493   0.80233   0.41613   0.00000  Uiso   1.00
Br140  Br    0.13146   0.86059   0.79667   0.00000  Uiso   1.00
Br141  Br    0.06425   0.90013   0.52536   0.00000  Uiso   1.00
Br142  Br    0.19380   0.94646   0.84841   0.00000  Uiso   1.00
Br143  Br    0.11657   0.97333   0.59515   0.00000  Uiso   1.00
Br144  Br    0.13355   0.80352   0.91767   0.00000  Uiso   1.00
Br145  Br    0.37614   0.15396   0.23966   0.00000  Uiso   1.00
Br146  Br    0.44442   0.10843   0.14581   0.00000  Uiso   1.00
Br147  Br    0.38329   0.16928   0.40073   0.00000  Uiso   1.00
Br148  Br    0.37913   0.01274   0.39547   0.00000  Uiso   1.00
Br149  Br    0.31105   0.05182   0.49479   0.00000  Uiso   1.00
Br150  Br    0.37150   0.15659   0.75103   0.00000  Uiso   1.00
Br151  Br    0.44922   0.11960   0.64268   0.00000  Uiso   1.00
Br152  Br    0.38686   0.01516   0.89508   0.00000  Uiso   1.00
Br153  Br    0.30581   0.05315   0.98235   0.00000  Uiso   1.00
Br154  Br    0.31047   0.26761   0.29029   0.00000  Uiso   1.00
Br155  Br    0.38744   0.35553   0.16758   0.00000  Uiso   1.00
Br156  Br    0.29984   0.28109   0.02335   0.00000  Uiso   1.00
Br157  Br    0.43183   0.24091   0.09545   0.00000  Uiso   1.00
Br158  Br    0.29954   0.37904   0.38857   0.00000  Uiso   1.00
Br159  Br    0.36923   0.33476   0.49716   0.00000  Uiso   1.00
Br160  Br    0.30578   0.27713   0.78320   0.00000  Uiso   1.00
Br161  Br    0.44607   0.22617   0.87380   0.00000  Uiso   1.00
Br162  Br    0.30811   0.39017   0.91351   0.00000  Uiso   1.00
Br163  Br    0.42632   0.24343   0.59336   0.00000  Uiso   1.00
Br164  Br    0.30521   0.39514   0.66919   0.00000  Uiso   1.00
Br165  Br    0.44566   0.44292   0.24322   0.00000  Uiso   1.00
Br166  Br    0.42607   0.57810   0.34868   0.00000  Uiso   1.00
Br167  Br    0.43927   0.56223   0.11674   0.00000  Uiso   1.00
Br168  Br    0.43977   0.43109   0.49274   0.00000  Uiso   1.00
Br169  Br    0.43372   0.43169   0.73276   0.00000  Uiso   1.00
Br170  Br    0.44319   0.55703   0.87856   0.00000  Uiso   1.00
Br171  Br    0.44265   0.55964   0.62296   0.00000  Uiso   1.00
Br172  Br    0.36040   0.46299   0.97226   0.00000  Uiso   1.00
Br173  Br    0.36318   0.67252   0.12740   0.00000  Uiso   1.00
Br174  Br    0.30833   0.61408   0.29648   0.00000  Uiso   1.00
Br175  Br    0.43714   0.77097   0.42572   0.00000  Uiso   1.00
Br176  Br    0.30806   0.73062   0.48648   0.00000  Uiso   1.00
Br177  Br    0.30566   0.72043   0.24823   0.00000  Uiso   1.00
Br178  Br    0.29943   0.62280   0.01607   0.00000  Uiso   1.00
Br179  Br    0.44392   0.76607   0.90914   0.00000  Uiso   1.00
Br180  Br    0.30545   0.72210   0.74681   0.00000  Uiso   1.00
Br181  Br    0.44314   0.77177   0.66145   0.00000  Uiso   1.00
Br182  Br    0.30422   0.61294   0.78838   0.00000  Uiso   1.00
Br183  Br    0.31271   0.60053   0.55062   0.00000  Uiso   1.00
Br184  Br    0.31535   0.94708   0.02822   0.00000  Uiso   1.00
Br185  Br    0.38102   0.82942   0.25196   0.00000  Uiso   1.00
Br186  Br    0.44531   0.89418   0.35598   0.00000  Uiso   1.00
Br187  Br    0.37656   0.98888   0.13190   0.00000  Uiso   1.00
Br188  Br    0.38139   0.82736   0.00230   0.00000  Uiso   1.00
Br189  Br    0.38404   0.83776   0.75018   0.00000  Uiso   1.00
Br190  Br    0.44253   0.88307   0.86424   0.00000  Uiso   1.00
Br191  Br    0.32001   0.92802   0.54215   0.00000  Uiso   1.00
Br192  Br    0.37368   0.99920   0.64322   0.00000  Uiso   1.00
Br193  Br    0.69324   0.06027   0.48496   0.00000  Uiso   1.00
Br194  Br    0.56469   0.09678   0.41637   0.00000  Uiso   1.00
Br195  Br    0.68469   0.06119   0.22518   0.00000  Uiso   1.00
Br196  Br    0.56160   0.10292   0.16069   0.00000  Uiso   1.00
Br197  Br    0.69101   0.05963   0.98484   0.00000  Uiso   1.00
Br198  Br    0.63518   0.13546   0.92632   0.00000  Uiso   1.00
Br199  Br    0.55886   0.10361   0.65871   0.00000  Uiso   1.00
Br200  Br    0.62272   0.02152   0.73078   0.00000  Uiso   1.00
Br201  Br    0.60835   0.36366   0.22181   0.00000  Uiso   1.00
Br202  Br    0.69853   0.27899   0.12692   0.00000  Uiso   1.00
Br203  Br    0.55983   0.22988   0.04351   0.00000  Uiso   1.00
Br204  Br    0.67838   0.25743   0.35178   0.00000  Uiso   1.00
Br205  Br    0.55074   0.20830   0.25839   0.00000  Uiso   1.00
Br206  Br    0.55768   0.21828   0.54254   0.00000  Uiso   1.00
Br207  Br    0.67905   0.26433   0.60357   0.00000  Uiso   1.00
Br208  Br    0.69946   0.38659   0.50056   0.00000  Uiso   1.00
Br209  Br    0.60755   0.36765   0.71674   0.00000  Uiso   1.00
Br210  Br    0.61379   0.36150   0.97562   0.00000  Uiso   1.00
Br211  Br    0.69057   0.26694   0.86591   0.00000  Uiso   1.00
Br212  Br    0.55463   0.22064   0.78730   0.00000  Uiso   1.00
Br213  Br    0.64615   0.46439   0.42968   0.00000  Uiso   1.00
Br214  Br    0.56090   0.56153   0.28722   0.00000  Uiso   1.00
Br215  Br    0.62867   0.47399   0.17207   0.00000  Uiso   1.00
Br216  Br    0.56783   0.56869   0.04516   0.00000  Uiso   1.00
Br217  Br    0.54132   0.45687   0.61266   0.00000  Uiso   1.00
Br218  Br    0.63342   0.47251   0.91951   0.00000  Uiso   1.00
Br219  Br    0.55839   0.55880   0.79800   0.00000  Uiso   1.00
Br220  Br    0.55698   0.55134   0.53439   0.00000  Uiso   1.00
Br221  Br    0.68149   0.59523   0.84665   0.00000  Uiso   1.00
Br222  Br    0.68687   0.60122   0.35660   0.00000  Uiso   1.00
Br223  Br    0.69718   0.71746   0.39957   0.00000  Uiso   1.00
Br224  Br    0.61828   0.68423   0.49369   0.00000  Uiso   1.00
Br225  Br    0.55217   0.78392   0.25276   0.00000  Uiso   1.00
Br226  Br    0.69028   0.60838   0.10234   0.00000  Uiso   1.00
Br227  Br    0.68479   0.72444   0.73007   0.00000  Uiso   1.00
Br228  Br    0.56367   0.77740   0.91189   0.00000  Uiso   1.00
Br229  Br    0.61127   0.69887   0.97856   0.00000  Uiso   1.00
Br230  Br    0.68255   0.60803   0.61032   0.00000  Uiso   1.00
Br231  Br    0.70265   0.96028   0.11985   0.00000  Uiso   1.00
Br232  Br    0.69494   0.94196   0.34909   0.00000  Uiso   1.00
Br233  Br    0.57455   0.91392   0.04566   0.00000  Uiso   1.00
Br234  Br    0.56667   0.90634   0.28126   0.00000  Uiso   1.00
Br235  Br    0.62921   0.82376   0.15623   0.00000  Uiso   1.00
Br236  Br    0.69931   0.94651   0.61977   0.00000  Uiso   1.00
Br237  Br    0.68997   0.93754   0.84790   0.00000  Uiso   1.00
Br238  Br    0.56071   0.88766   0.78030   0.00000  Uiso   1.00
Br239  Br    0.56737   0.90001   0.52607   0.00000  Uiso   1.00
Br240  Br    0.63516   0.82328   0.65145   0.00000  Uiso   1.00
Br241  Br    0.88015   0.01566   0.49064   0.00000  Uiso   1.00
Br242  Br    0.80877   0.05286   0.23358   0.00000  Uiso   1.00
Br243  Br    0.94281   0.10328   0.15621   0.00000  Uiso   1.00
Br244  Br    0.93795   0.09719   0.41477   0.00000  Uiso   1.00
Br245  Br    0.87341   0.15842   0.64517   0.00000  Uiso   1.00
Br246  Br    0.80598   0.05716   0.73507   0.00000  Uiso   1.00
Br247  Br    0.93938   0.10831   0.90331   0.00000  Uiso   1.00
Br248  Br    0.79995   0.05937   0.99155   0.00000  Uiso   1.00
Br249  Br    0.86011   0.19043   0.77800   0.00000  Uiso   1.00
Br250  Br    0.86552   0.33300   0.12038   0.00000  Uiso   1.00
Br251  Br    0.80341   0.39014   0.22974   0.00000  Uiso   1.00
Br252  Br    0.80928   0.27939   0.28107   0.00000  Uiso   1.00
Br253  Br    0.93320   0.23079   0.34922   0.00000  Uiso   1.00
Br254  Br    0.88890   0.36871   0.46368   0.00000  Uiso   1.00
Br255  Br    0.93920   0.22947   0.10976   0.00000  Uiso   1.00
Br256  Br    0.79746   0.28800   0.01041   0.00000  Uiso   1.00
Br257  Br    0.86874   0.33275   0.62675   0.00000  Uiso   1.00
Br258  Br    0.94258   0.22931   0.86377   0.00000  Uiso   1.00
Br259  Br    0.79996   0.38605   0.73846   0.00000  Uiso   1.00
Br260  Br    0.80928   0.27343   0.53247   0.00000  Uiso   1.00
Br261  Br    0.93578   0.43722   0.40411   0.00000  Uiso   1.00
Br262  Br    0.87579   0.51208   0.26103   0.00000  Uiso   1.00
Br263  Br    0.95061   0.54998   0.38352   0.00000  Uiso   1.00
Br264  Br    0.87823   0.49242   0.00339   0.00000  Uiso   1.00
Br265  Br    0.94339   0.44381   0.88767   0.00000  Uiso   1.00
Br266  Br    0.85469   0.46406   0.67395   0.00000  Uiso   1.00
Br267  Br    0.94133   0.56240   0.85559   0.00000  Uiso   1.00
Br268  Br    0.93127   0.57328   0.59754   0.00000  Uiso   1.00
Br269  Br    0.80678   0.73050   0.48332   0.00000  Uiso   1.00
Br270  Br    0.94330   0.77024   0.15812   0.00000  Uiso   1.00
Br271  Br    0.87445   0.65186   0.10322   0.00000  Uiso   1.00
Br272  Br    0.93373   0.76192   0.41804   0.00000  Uiso   1.00
Br273  Br    0.80520   0.61193   0.01801   0.00000  Uiso   1.00
Br274  Br    0.81297   0.74354   0.22104   0.00000  Uiso   1.00
Br275  Br    0.94017   0.76952   0.65868   0.00000  Uiso   1.00
Br276  Br    0.94264   0.77264   0.90179   0.00000  Uiso   1.00
Br277  Br    0.81005   0.73139   0.72828   0.00000  Uiso   1.00
Br278  Br    0.80987   0.60413   0.79355   0.00000  Uiso   1.00
Br279  Br    0.80474   0.72871   0.98281   0.00000  Uiso   1.00
Br280  Br    0.79890   0.61694   0.51764   0.00000  Uiso   1.00
Br281  Br    0.95326   0.87748   0.11783   0.00000  Uiso   1.00
Br282  Br    0.81384   0.94339   0.26917   0.00000  Uiso   1.00
Br283  Br    0.94219   0.89448   0.35017   0.00000  Uiso   1.00
Br284  Br    0.95715   0.88216   0.61820   0.00000  Uiso   1.00
Br285  Br    0.81010   0.94023   0.76163   0.00000  Uiso   1.00
Br286  Br    0.86594   0.99594   0.88401   0.00000  Uiso   1.00
Br287  Br    0.83378   0.91759   0.55463   0.00000  Uiso   1.00
Br288  Br    0.88411   0.82869   0.97928   0.00000  Uiso   1.00
H289   H     0.10871   0.04721   0.48689   0.00000  Uiso   1.00
H290   H     0.07015   0.09016   0.13386   0.00000  Uiso   1.00
H291   H     0.13755   0.13848   0.38468   0.00000  Uiso   1.00
H292   H     0.11186   0.04100   0.25743   0.00000  Uiso   1.00
H293   H     0.00883   0.04441   0.18920   0.00000  Uiso   1.00
H294   H     0.01202   0.04007   0.44381   0.00000  Uiso   1.00
H295   H     0.23718   0.12052   0.19857   0.00000  Uiso   1.00
H296   H     0.24556   0.12527   0.69351   0.00000  Uiso   1.00
H297   H     0.01198   0.04666   0.69544   0.00000  Uiso   1.00
H298   H     0.13001   0.13898   0.87485   0.00000  Uiso   1.00
H299   H     0.11920   0.02762   0.76641   0.00000  Uiso   1.00
H300   H     0.14838   0.11927   0.63621   0.00000  Uiso   1.00
H301   H     0.16796   0.08048   0.99175   0.00000  Uiso   1.00
H302   H     0.24723   0.11956   0.93862   0.00000  Uiso   1.00
H303   H     0.11006   0.37561   0.38754   0.00000  Uiso   1.00
H304   H     0.09704   0.28482   0.11499   0.00000  Uiso   1.00
H305   H     0.13698   0.20375   0.25301   0.00000  Uiso   1.00
H306   H     0.11097   0.37141   0.14035   0.00000  Uiso   1.00
H307   H     0.10321   0.28715   0.37465   0.00000  Uiso   1.00
H308   H     0.00070   0.28680   0.31702   0.00000  Uiso   1.00
H309   H     0.24579   0.21331   0.31336   0.00000  Uiso   1.00
H310   H     0.24798   0.21058   0.06491   0.00000  Uiso   1.00
H311   H     0.14086   0.20059   0.00815   0.00000  Uiso   1.00
H312   H     0.11054   0.36556   0.63068   0.00000  Uiso   1.00
H313   H     0.10131   0.28874   0.61881   0.00000  Uiso   1.00
H314   H     0.10646   0.29646   0.87676   0.00000  Uiso   1.00
H315   H     0.23821   0.20846   0.82088   0.00000  Uiso   1.00
H316   H     0.14837   0.21321   0.52056   0.00000  Uiso   1.00
H317   H     0.23835   0.21006   0.56939   0.00000  Uiso   1.00
H318   H     0.00099   0.28320   0.81852   0.00000  Uiso   1.00
H319   H     0.13576   0.20200   0.75938   0.00000  Uiso   1.00
H320   H     0.14200   0.46408   0.25565   0.00000  Uiso   1.00
H321   H     0.13054   0.52901   0.26648   0.00000  Uiso   1.00
H322   H     0.24975   0.45294   0.45565   0.00000  Uiso   1.00
H323   H     0.13779   0.46850   0.01530   0.00000  Uiso   1.00
H324   H     0.13619   0.54069   0.02221   0.00000  Uiso   1.00
H325   H     0.24592   0.54474   0.08297   0.00000  Uiso   1.00
H326   H     0.13401   0.47090   0.51511   0.00000  Uiso   1.00
H327   H     0.13553   0.53886   0.76987   0.00000  Uiso   1.00
H328   H     0.05839   0.44498   0.87028   0.00000  Uiso   1.00
H329   H     0.23536   0.46130   0.95188   0.00000  Uiso   1.00
H330   H     0.23749   0.54246   0.82509   0.00000  Uiso   1.00
H331   H     0.17692   0.40351   0.77256   0.00000  Uiso   1.00
H332   H     0.13715   0.53709   0.52202   0.00000  Uiso   1.00
H333   H     0.10559   0.61970   0.13254   0.00000  Uiso   1.00
H334   H     0.17684   0.73313   0.25769   0.00000  Uiso   1.00
H335   H     0.07467   0.75743   0.38589   0.00000  Uiso   1.00
H336   H     0.10159   0.61272   0.36971   0.00000  Uiso   1.00
H337   H     0.14350   0.79655   0.13393   0.00000  Uiso   1.00
H338   H     0.24839   0.78581   0.45094   0.00000  Uiso   1.00
H339   H     0.00904   0.71398   0.44142   0.00000  Uiso   1.00
H340   H     0.07167   0.75755   0.87858   0.00000  Uiso   1.00
H341   H     0.10902   0.71281   0.99445   0.00000  Uiso   1.00
H342   H     0.11288   0.70037   0.51838   0.00000  Uiso   1.00
H343   H     0.18218   0.74317   0.75578   0.00000  Uiso   1.00
H344   H     0.10385   0.61863   0.62147   0.00000  Uiso   1.00
H345   H     0.11504   0.62664   0.88011   0.00000  Uiso   1.00
H346   H     0.13739   0.79468   0.64874   0.00000  Uiso   1.00
H347   H     0.24915   0.78726   0.69674   0.00000  Uiso   1.00
H348   H     0.01183   0.95253   0.06680   0.00000  Uiso   1.00
H349   H     0.08481   0.92218   0.26607   0.00000  Uiso   1.00
H350   H     0.14013   0.87586   0.00691   0.00000  Uiso   1.00
H351   H     0.12279   0.97326   0.38234   0.00000  Uiso   1.00
H352   H     0.18313   0.92542   0.12625   0.00000  Uiso   1.00
H353   H     0.01900   0.95896   0.31727   0.00000  Uiso   1.00
H354   H     0.07489   0.91018   0.76127   0.00000  Uiso   1.00
H355   H     0.01361   0.96055   0.56739   0.00000  Uiso   1.00
H356   H     0.11060   0.96229   0.86612   0.00000  Uiso   1.00
H357   H     0.17787   0.92227   0.63629   0.00000  Uiso   1.00
H358   H     0.14051   0.87592   0.50741   0.00000  Uiso   1.00
H359   H     0.00667   0.95600   0.81279   0.00000  Uiso   1.00
H360   H     0.43078   0.10319   0.26629   0.00000  Uiso   1.00
H361   H     0.36300   0.13140   0.12464   0.00000  Uiso   1.00
H362   H     0.31704   0.06542   0.37253   0.00000  Uiso   1.00
H363   H     0.49502   0.04706   0.19173   0.00000  Uiso   1.00
H364   H     0.25444   0.11999   0.44144   0.00000  Uiso   1.00
H365   H     0.42852   0.09807   0.75613   0.00000  Uiso   1.00
H366   H     0.36956   0.13819   0.62786   0.00000  Uiso   1.00
H367   H     0.32141   0.06152   0.87008   0.00000  Uiso   1.00
H368   H     0.39417   0.03915   0.50460   0.00000  Uiso   1.00
H369   H     0.39147   0.03698   0.99862   0.00000  Uiso   1.00
H370   H     0.49058   0.37377   0.19722   0.00000  Uiso   1.00
H371   H     0.35537   0.21552   0.11941   0.00000  Uiso   1.00
H372   H     0.39037   0.29026   0.26687   0.00000  Uiso   1.00
H373   H     0.44196   0.22970   0.41515   0.00000  Uiso   1.00
H374   H     0.30889   0.27774   0.46718   0.00000  Uiso   1.00
H375   H     0.38280   0.29692   0.01670   0.00000  Uiso   1.00
H376   H     0.38179   0.35571   0.37342   0.00000  Uiso   1.00
H377   H     0.49225   0.37614   0.44957   0.00000  Uiso   1.00
H378   H     0.49840   0.28709   0.32173   0.00000  Uiso   1.00
H379   H     0.36097   0.20640   0.87918   0.00000  Uiso   1.00
H380   H     0.49028   0.28534   0.82299   0.00000  Uiso   1.00
H381   H     0.34648   0.21731   0.61900   0.00000  Uiso   1.00
H382   H     0.38072   0.29991   0.75747   0.00000  Uiso   1.00
H383   H     0.38554   0.36980   0.65174   0.00000  Uiso   1.00
H384   H     0.38314   0.36436   0.88536   0.00000  Uiso   1.00
H385   H     0.49770   0.28240   0.57998   0.00000  Uiso   1.00
H386   H     0.49076   0.37972   0.69894   0.00000  Uiso   1.00
H387   H     0.48365   0.37329   0.94382   0.00000  Uiso   1.00
H388   H     0.25197   0.45069   0.20574   0.00000  Uiso   1.00
H389   H     0.36024   0.53819   0.14202   0.00000  Uiso   1.00
H390   H     0.36660   0.46838   0.27340   0.00000  Uiso   1.00
H391   H     0.34844   0.55129   0.37583   0.00000  Uiso   1.00
H392   H     0.33307   0.41612   0.14801   0.00000  Uiso   1.00
H393   H     0.25024   0.54459   0.32826   0.00000  Uiso   1.00
H394   H     0.42543   0.41750   0.00076   0.00000  Uiso   1.00
H395   H     0.35862   0.53845   0.64523   0.00000  Uiso   1.00
H396   H     0.35167   0.45722   0.75746   0.00000  Uiso   1.00
H397   H     0.36478   0.53565   0.89680   0.00000  Uiso   1.00
H398   H     0.25005   0.54589   0.57725   0.00000  Uiso   1.00
H399   H     0.36340   0.45668   0.51223   0.00000  Uiso   1.00
H400   H     0.25249   0.45543   0.70327   0.00000  Uiso   1.00
H401   H     0.38754   0.69833   0.26628   0.00000  Uiso   1.00
H402   H     0.31230   0.73118   0.10584   0.00000  Uiso   1.00
H403   H     0.43734   0.77068   0.02733   0.00000  Uiso   1.00
H404   H     0.38748   0.63288   0.27079   0.00000  Uiso   1.00
H405   H     0.48456   0.71062   0.20554   0.00000  Uiso   1.00
H406   H     0.25902   0.78438   0.19656   0.00000  Uiso   1.00
H407   H     0.36257   0.79466   0.39732   0.00000  Uiso   1.00
H408   H     0.47906   0.62819   0.07419   0.00000  Uiso   1.00
H409   H     0.48997   0.70820   0.45399   0.00000  Uiso   1.00
H410   H     0.49708   0.61849   0.57943   0.00000  Uiso   1.00
H411   H     0.38502   0.69701   0.76353   0.00000  Uiso   1.00
H412   H     0.49654   0.62270   0.82838   0.00000  Uiso   1.00
H413   H     0.38724   0.63269   0.77020   0.00000  Uiso   1.00
H414   H     0.49850   0.70934   0.70367   0.00000  Uiso   1.00
H415   H     0.26182   0.79066   0.94421   0.00000  Uiso   1.00
H416   H     0.36446   0.79812   0.64071   0.00000  Uiso   1.00
H417   H     0.37119   0.79759   0.88276   0.00000  Uiso   1.00
H418   H     0.38651   0.63065   0.52272   0.00000  Uiso   1.00
H419   H     0.38582   0.70099   0.50975   0.00000  Uiso   1.00
H420   H     0.37932   0.64808   0.99844   0.00000  Uiso   1.00
H421   H     0.25390   0.87946   0.07130   0.00000  Uiso   1.00
H422   H     0.31870   0.93686   0.15825   0.00000  Uiso   1.00
H423   H     0.43926   0.89578   0.24350   0.00000  Uiso   1.00
H424   H     0.37018   0.86475   0.38810   0.00000  Uiso   1.00
H425   H     0.25221   0.87860   0.31819   0.00000  Uiso   1.00
H426   H     0.39781   0.95716   0.01655   0.00000  Uiso   1.00
H427   H     0.25146   0.88012   0.56964   0.00000  Uiso   1.00
H428   H     0.27110   0.87931   0.82047   0.00000  Uiso   1.00
H429   H     0.31582   0.94183   0.65958   0.00000  Uiso   1.00
H430   H     0.44084   0.88951   0.71696   0.00000  Uiso   1.00
H431   H     0.35843   0.87415   0.87258   0.00000  Uiso   1.00
H432   H     0.39536   0.95665   0.51722   0.00000  Uiso   1.00
H433   H     0.64229   0.12066   0.39034   0.00000  Uiso   1.00
H434   H     0.60512   0.03780   0.25197   0.00000  Uiso   1.00
H435   H     0.64099   0.12861   0.14217   0.00000  Uiso   1.00
H436   H     0.61667   0.02991   0.01413   0.00000  Uiso   1.00
H437   H     0.63152   0.18849   0.24663   0.00000  Uiso   1.00
H438   H     0.50871   0.04673   0.44797   0.00000  Uiso   1.00
H439   H     0.74234   0.11897   0.45323   0.00000  Uiso   1.00
H440   H     0.74119   0.11993   0.19704   0.00000  Uiso   1.00
H441   H     0.63528   0.19985   0.02000   0.00000  Uiso   1.00
H442   H     0.63041   0.18860   0.51243   0.00000  Uiso   1.00
H443   H     0.63589   0.13451   0.63088   0.00000  Uiso   1.00
H444   H     0.67906   0.07394   0.75898   0.00000  Uiso   1.00
H445   H     0.57662   0.08207   0.89264   0.00000  Uiso   1.00
H446   H     0.74115   0.12435   0.68945   0.00000  Uiso   1.00
H447   H     0.61813   0.03028   0.50888   0.00000  Uiso   1.00
H448   H     0.63152   0.19558   0.76412   0.00000  Uiso   1.00
H449   H     0.51216   0.04066   0.94306   0.00000  Uiso   1.00
H450   H     0.50941   0.04386   0.69692   0.00000  Uiso   1.00
H451   H     0.61585   0.29755   0.13990   0.00000  Uiso   1.00
H452   H     0.60806   0.29072   0.39356   0.00000  Uiso   1.00
H453   H     0.73975   0.20675   0.32750   0.00000  Uiso   1.00
H454   H     0.50257   0.28463   0.07479   0.00000  Uiso   1.00
H455   H     0.61584   0.35762   0.52869   0.00000  Uiso   1.00
H456   H     0.60203   0.29152   0.63210   0.00000  Uiso   1.00
H457   H     0.60793   0.28350   0.87569   0.00000  Uiso   1.00
H458   H     0.74992   0.21422   0.81589   0.00000  Uiso   1.00
H459   H     0.74563   0.21517   0.56443   0.00000  Uiso   1.00
H460   H     0.67596   0.41069   0.25017   0.00000  Uiso   1.00
H461   H     0.64205   0.53658   0.26089   0.00000  Uiso   1.00
H462   H     0.56817   0.42886   0.13185   0.00000  Uiso   1.00
H463   H     0.58376   0.41872   0.39709   0.00000  Uiso   1.00
H464   H     0.73941   0.45953   0.19037   0.00000  Uiso   1.00
H465   H     0.74153   0.55044   0.06552   0.00000  Uiso   1.00
H466   H     0.64370   0.54176   0.01946   0.00000  Uiso   1.00
H467   H     0.63327   0.52665   0.76304   0.00000  Uiso   1.00
H468   H     0.73731   0.54228   0.81787   0.00000  Uiso   1.00
H469   H     0.73116   0.54561   0.56893   0.00000  Uiso   1.00
H470   H     0.63581   0.53107   0.51524   0.00000  Uiso   1.00
H471   H     0.62030   0.47992   0.60407   0.00000  Uiso   1.00
H472   H     0.66364   0.41883   0.74059   0.00000  Uiso   1.00
H473   H     0.56993   0.42751   0.88363   0.00000  Uiso   1.00
H474   H     0.74540   0.45212   0.94638   0.00000  Uiso   1.00
H475   H     0.73675   0.45415   0.69482   0.00000  Uiso   1.00
H476   H     0.66927   0.41832   0.99736   0.00000  Uiso   1.00
H477   H     0.57267   0.76398   0.14242   0.00000  Uiso   1.00
H478   H     0.61233   0.63282   0.13389   0.00000  Uiso   1.00
H479   H     0.61429   0.70209   0.38617   0.00000  Uiso   1.00
H480   H     0.61159   0.63004   0.38848   0.00000  Uiso   1.00
H481   H     0.66968   0.75276   0.00549   0.00000  Uiso   1.00
H482   H     0.50524   0.62389   0.32924   0.00000  Uiso   1.00
H483   H     0.60125   0.61700   0.87271   0.00000  Uiso   1.00
H484   H     0.57621   0.76496   0.64473   0.00000  Uiso   1.00
H485   H     0.60165   0.71039   0.75101   0.00000  Uiso   1.00
H486   H     0.67630   0.74017   0.50893   0.00000  Uiso   1.00
H487   H     0.60438   0.62978   0.64301   0.00000  Uiso   1.00
H488   H     0.50391   0.71452   0.94954   0.00000  Uiso   1.00
H489   H     0.61961   0.97583   0.13018   0.00000  Uiso   1.00
H490   H     0.61271   0.96440   0.37091   0.00000  Uiso   1.00
H491   H     0.64158   0.88533   0.26339   0.00000  Uiso   1.00
H492   H     0.63508   0.80467   0.26393   0.00000  Uiso   1.00
H493   H     0.65270   0.88914   0.02071   0.00000  Uiso   1.00
H494   H     0.50967   0.95887   0.06990   0.00000  Uiso   1.00
H495   H     0.50682   0.95790   0.31225   0.00000  Uiso   1.00
H496   H     0.61522   0.96719   0.63061   0.00000  Uiso   1.00
H497   H     0.61160   0.95868   0.86679   0.00000  Uiso   1.00
H498   H     0.64448   0.87869   0.76906   0.00000  Uiso   1.00
H499   H     0.50554   0.95201   0.81828   0.00000  Uiso   1.00
H500   H     0.64891   0.88526   0.51533   0.00000  Uiso   1.00
H501   H     0.51724   0.95591   0.56799   0.00000  Uiso   1.00
H502   H     0.64137   0.80102   0.88336   0.00000  Uiso   1.00
H503   H     0.88915   0.02833   0.25651   0.00000  Uiso   1.00
H504   H     0.86465   0.13286   0.12884   0.00000  Uiso   1.00
H505   H     0.85808   0.12205   0.38722   0.00000  Uiso   1.00
H506   H     0.88112   0.03160   0.00834   0.00000  Uiso   1.00
H507   H     0.92997   0.10089   0.63063   0.00000  Uiso   1.00
H508   H     0.89035   0.04410   0.74552   0.00000  Uiso   1.00
H509   H     0.85860   0.12828   0.88647   0.00000  Uiso   1.00
H510   H     0.82127   0.06984   0.51299   0.00000  Uiso   1.00
H511   H     0.96595   0.02914   0.93931   0.00000  Uiso   1.00
H512   H     0.75291   0.11920   0.94266   0.00000  Uiso   1.00
H513   H     0.85783   0.20411   0.13295   0.00000  Uiso   1.00
H514   H     0.88385   0.30031   0.26127   0.00000  Uiso   1.00
H515   H     0.85586   0.21189   0.36892   0.00000  Uiso   1.00
H516   H     0.88474   0.36499   0.25326   0.00000  Uiso   1.00
H517   H     0.99328   0.37897   0.19352   0.00000  Uiso   1.00
H518   H     0.99636   0.37688   0.44108   0.00000  Uiso   1.00
H519   H     0.80687   0.39184   0.10500   0.00000  Uiso   1.00
H520   H     0.99181   0.28744   0.06921   0.00000  Uiso   1.00
H521   H     0.75314   0.21092   0.07568   0.00000  Uiso   1.00
H522   H     0.88283   0.30642   0.00120   0.00000  Uiso   1.00
H523   H     0.85974   0.20235   0.88579   0.00000  Uiso   1.00
H524   H     0.92781   0.23672   0.74459   0.00000  Uiso   1.00
H525   H     0.98532   0.28790   0.57383   0.00000  Uiso   1.00
H526   H     0.88703   0.36251   0.74684   0.00000  Uiso   1.00
H527   H     0.80880   0.27882   0.64914   0.00000  Uiso   1.00
H528   H     0.88511   0.29682   0.50777   0.00000  Uiso   1.00
H529   H     0.99743   0.37729   0.94122   0.00000  Uiso   1.00
H530   H     0.98710   0.37638   0.69099   0.00000  Uiso   1.00
H531   H     0.75732   0.54880   0.31842   0.00000  Uiso   1.00
H532   H     0.93219   0.57069   0.24588   0.00000  Uiso   1.00
H533   H     0.85640   0.45583   0.38959   0.00000  Uiso   1.00
H534   H     0.86714   0.53029   0.39661   0.00000  Uiso   1.00
H535   H     0.93276   0.42992   0.01946   0.00000  Uiso   1.00
H536   H     0.82546   0.41225   0.49755   0.00000  Uiso   1.00
H537   H     0.75102   0.45625   0.44094   0.00000  Uiso   1.00
H538   H     0.92449   0.42040   0.63651   0.00000  Uiso   1.00
H539   H     0.85811   0.54443   0.62596   0.00000  Uiso   1.00
H540   H     0.86309   0.46532   0.87020   0.00000  Uiso   1.00
H541   H     0.86578   0.53495   0.87762   0.00000  Uiso   1.00
H542   H     0.99810   0.71068   0.19042   0.00000  Uiso   1.00
H543   H     0.89099   0.70915   0.24833   0.00000  Uiso   1.00
H544   H     0.86084   0.79536   0.38905   0.00000  Uiso   1.00
H545   H     0.88678   0.70515   0.00052   0.00000  Uiso   1.00
H546   H     0.86427   0.79943   0.13522   0.00000  Uiso   1.00
H547   H     0.76128   0.79467   0.19524   0.00000  Uiso   1.00
H548   H     0.99061   0.61979   0.31761   0.00000  Uiso   1.00
H549   H     0.99675   0.62379   0.06725   0.00000  Uiso   1.00
H550   H     0.75288   0.78783   0.44866   0.00000  Uiso   1.00
H551   H     0.81573   0.60521   0.14336   0.00000  Uiso   1.00
H552   H     0.99704   0.71567   0.94251   0.00000  Uiso   1.00
H553   H     0.75005   0.79183   0.69618   0.00000  Uiso   1.00
H554   H     0.88624   0.69614   0.75660   0.00000  Uiso   1.00
H555   H     0.87071   0.79843   0.87967   0.00000  Uiso   1.00
H556   H     0.99899   0.71245   0.69379   0.00000  Uiso   1.00
H557   H     0.88967   0.63097   0.75945   0.00000  Uiso   1.00
H558   H     0.88245   0.64044   0.99492   0.00000  Uiso   1.00
H559   H     0.98822   0.62280   0.56892   0.00000  Uiso   1.00
H560   H     0.99950   0.61846   0.81996   0.00000  Uiso   1.00
H561   H     0.75958   0.78952   0.94105   0.00000  Uiso   1.00
H562   H     0.86141   0.79715   0.63341   0.00000  Uiso   1.00
H563   H     0.88330   0.70351   0.50096   0.00000  Uiso   1.00
H564   H     0.88107   0.64167   0.50082   0.00000  Uiso   1.00
H565   H     0.87165   0.85275   0.14472   0.00000  Uiso   1.00
H566   H     0.89613   0.96267   0.25345   0.00000  Uiso   1.00
H567   H     0.86368   0.86696   0.37524   0.00000  Uiso   1.00
H568   H     0.76707   0.87589   0.07559   0.00000  Uiso   1.00
H569   H     0.76076   0.87999   0.32104   0.00000  Uiso   1.00
H570   H     0.75506   0.88089   0.82001   0.00000  Uiso   1.00
H571   H     0.91017   0.93832   0.52473   0.00000  Uiso   1.00
H572   H     0.87559   0.85773   0.63538   0.00000  Uiso   1.00
H573   H     0.88908   0.96671   0.74795   0.00000  Uiso   1.00
H574   H     0.81191   0.93368   0.89987   0.00000  Uiso   1.00
H575   H     0.93570   0.88973   0.97734   0.00000  Uiso   1.00
H576   H     0.75139   0.88074   0.56900   0.00000  Uiso   1.00
C577   C     0.09218   0.08589   0.10261   0.00000  Uiso   1.00
C578   C     0.12712   0.10749   0.10587   0.00000  Uiso   1.00
C579   C     0.11670   0.06092   0.02313   0.00000  Uiso   1.00
C580   C     0.14986   0.08273   0.02540   0.00000  Uiso   1.00
C581   C     0.05226   0.03934   0.06138   0.00000  Uiso   1.00
C582   C     0.08731   0.06361   0.06124   0.00000  Uiso   1.00
C583   C     0.19179   0.12947   0.06434   0.00000  Uiso   1.00
C584   C     0.15558   0.10680   0.06594   0.00000  Uiso   1.00
C585   C     0.11831   0.06144   0.28590   0.00000  Uiso   1.00
C586   C     0.15371   0.07979   0.28663   0.00000  Uiso   1.00
C587   C     0.09767   0.09585   0.36110   0.00000  Uiso   1.00
C588   C     0.13216   0.11378   0.35883   0.00000  Uiso   1.00
C589   C     0.05461   0.04521   0.32147   0.00000  Uiso   1.00
C590   C     0.08849   0.07069   0.32071   0.00000  Uiso   1.00
C591   C     0.19548   0.13039   0.31894   0.00000  Uiso   1.00
C592   C     0.16079   0.10763   0.32279   0.00000  Uiso   1.00
C593   C     0.11618   0.06308   0.52064   0.00000  Uiso   1.00
C594   C     0.15325   0.07952   0.52119   0.00000  Uiso   1.00
C595   C     0.10213   0.08876   0.60338   0.00000  Uiso   1.00
C596   C     0.13940   0.10315   0.60490   0.00000  Uiso   1.00
C597   C     0.05684   0.04354   0.56684   0.00000  Uiso   1.00
C598   C     0.09182   0.06575   0.56367   0.00000  Uiso   1.00
C599   C     0.20279   0.12250   0.56527   0.00000  Uiso   1.00
C600   C     0.16513   0.10069   0.56398   0.00000  Uiso   1.00
C601   C     0.12098   0.05275   0.79039   0.00000  Uiso   1.00
C602   C     0.15718   0.07180   0.78984   0.00000  Uiso   1.00
C603   C     0.09188   0.09680   0.84900   0.00000  Uiso   1.00
C604   C     0.12752   0.11648   0.84743   0.00000  Uiso   1.00
C605   C     0.05169   0.04609   0.81767   0.00000  Uiso   1.00
C606   C     0.08757   0.06627   0.81678   0.00000  Uiso   1.00
C607   C     0.19520   0.12686   0.81598   0.00000  Uiso   1.00
C608   C     0.15994   0.10537   0.81727   0.00000  Uiso   1.00
C609   C     0.11609   0.39301   0.35785   0.00000  Uiso   1.00
C610   C     0.11587   0.39326   0.11293   0.00000  Uiso   1.00
C611   C     0.19403   0.20713   0.18665   0.00000  Uiso   1.00
C612   C     0.05202   0.38031   0.31907   0.00000  Uiso   1.00
C613   C     0.13070   0.22411   0.22417   0.00000  Uiso   1.00
C614   C     0.14501   0.25135   0.14169   0.00000  Uiso   1.00
C615   C     0.10625   0.26650   0.14513   0.00000  Uiso   1.00
C616   C     0.10108   0.24529   0.48820   0.00000  Uiso   1.00
C617   C     0.15628   0.22924   0.18378   0.00000  Uiso   1.00
C618   C     0.04717   0.28570   0.19017   0.00000  Uiso   1.00
C619   C     0.08266   0.26450   0.18779   0.00000  Uiso   1.00
C620   C     0.14012   0.23200   0.48768   0.00000  Uiso   1.00
C621   C     0.09422   0.24180   0.22876   0.00000  Uiso   1.00
C622   C     0.04983   0.37774   0.07163   0.00000  Uiso   1.00
C623   C     0.15185   0.25705   0.40531   0.00000  Uiso   1.00
C624   C     0.11382   0.27214   0.40566   0.00000  Uiso   1.00
C625   C     0.16377   0.23295   0.44348   0.00000  Uiso   1.00
C626   C     0.05016   0.28597   0.44663   0.00000  Uiso   1.00
C627   C     0.08862   0.26571   0.44743   0.00000  Uiso   1.00
C628   C     0.19924   0.20907   0.44186   0.00000  Uiso   1.00
C629   C     0.09444   0.23751   0.97691   0.00000  Uiso   1.00
C630   C     0.13329   0.22108   0.97704   0.00000  Uiso   1.00
C631   C     0.12784   0.22150   0.72633   0.00000  Uiso   1.00
C632   C     0.14587   0.25086   0.64740   0.00000  Uiso   1.00
C633   C     0.10925   0.26863   0.64763   0.00000  Uiso   1.00
C634   C     0.15492   0.22677   0.68740   0.00000  Uiso   1.00
C635   C     0.04451   0.28328   0.68946   0.00000  Uiso   1.00
C636   C     0.08105   0.26139   0.68718   0.00000  Uiso   1.00
C637   C     0.04893   0.37970   0.81729   0.00000  Uiso   1.00
C638   C     0.09032   0.23601   0.72623   0.00000  Uiso   1.00
C639   C     0.05063   0.37642   0.56932   0.00000  Uiso   1.00
C640   C     0.15094   0.25464   0.90093   0.00000  Uiso   1.00
C641   C     0.11415   0.27317   0.90344   0.00000  Uiso   1.00
C642   C     0.11701   0.39482   0.78894   0.00000  Uiso   1.00
C643   C     0.16021   0.23080   0.94046   0.00000  Uiso   1.00
C644   C     0.04933   0.28438   0.94154   0.00000  Uiso   1.00
C645   C     0.08559   0.26272   0.93796   0.00000  Uiso   1.00
C646   C     0.08568   0.39957   0.56878   0.00000  Uiso   1.00
C647   C     0.11441   0.38955   0.60621   0.00000  Uiso   1.00
C648   C     0.19839   0.21024   0.94102   0.00000  Uiso   1.00
C649   C     0.19165   0.20611   0.68936   0.00000  Uiso   1.00
C650   C     0.09561   0.42784   0.03965   0.00000  Uiso   1.00
C651   C     0.14275   0.57743   0.15677   0.00000  Uiso   1.00
C652   C     0.07729   0.59018   0.19436   0.00000  Uiso   1.00
C653   C     0.09248   0.57049   0.48533   0.00000  Uiso   1.00
C654   C     0.19262   0.53569   0.20040   0.00000  Uiso   1.00
C655   C     0.15306   0.55360   0.19644   0.00000  Uiso   1.00
C656   C     0.15076   0.41357   0.11852   0.00000  Uiso   1.00
C657   C     0.12507   0.54955   0.23629   0.00000  Uiso   1.00
C658   C     0.13172   0.44463   0.04143   0.00000  Uiso   1.00
C659   C     0.08727   0.56673   0.23607   0.00000  Uiso   1.00
C660   C     0.19746   0.45957   0.07685   0.00000  Uiso   1.00
C661   C     0.15965   0.43813   0.07958   0.00000  Uiso   1.00
C662   C     0.13022   0.55371   0.48651   0.00000  Uiso   1.00
C663   C     0.19446   0.53834   0.44968   0.00000  Uiso   1.00
C664   C     0.15575   0.55788   0.44556   0.00000  Uiso   1.00
C665   C     0.15264   0.40988   0.35924   0.00000  Uiso   1.00
C666   C     0.13620   0.44375   0.28472   0.00000  Uiso   1.00
C667   C     0.16204   0.43613   0.32455   0.00000  Uiso   1.00
C668   C     0.09893   0.42685   0.28317   0.00000  Uiso   1.00
C669   C     0.08801   0.40226   0.32063   0.00000  Uiso   1.00
C670   C     0.19995   0.45722   0.32704   0.00000  Uiso   1.00
C671   C     0.14561   0.57933   0.40290   0.00000  Uiso   1.00
C672   C     0.10901   0.59475   0.40050   0.00000  Uiso   1.00
C673   C     0.08373   0.59347   0.44268   0.00000  Uiso   1.00
C674   C     0.10725   0.59648   0.15763   0.00000  Uiso   1.00
C675   C     0.08752   0.40062   0.07466   0.00000  Uiso   1.00
C676   C     0.08416   0.40485   0.81652   0.00000  Uiso   1.00
C677   C     0.15533   0.44369   0.82686   0.00000  Uiso   1.00
C678   C     0.19141   0.46404   0.82748   0.00000  Uiso   1.00
C679   C     0.15525   0.59247   0.91758   0.00000  Uiso   1.00
C680   C     0.08487   0.43612   0.84710   0.00000  Uiso   1.00
C681   C     0.19346   0.53791   0.69561   0.00000  Uiso   1.00
C682   C     0.15759   0.56039   0.69621   0.00000  Uiso   1.00
C683   C     0.09523   0.57564   0.98815   0.00000  Uiso   1.00
C684   C     0.13102   0.55554   0.73609   0.00000  Uiso   1.00
C685   C     0.13060   0.44748   0.53707   0.00000  Uiso   1.00
C686   C     0.09413   0.57066   0.73336   0.00000  Uiso   1.00
C687   C     0.19603   0.45972   0.57796   0.00000  Uiso   1.00
C688   C     0.15791   0.43841   0.57590   0.00000  Uiso   1.00
C689   C     0.15056   0.40793   0.60832   0.00000  Uiso   1.00
C690   C     0.13155   0.55953   0.99172   0.00000  Uiso   1.00
C691   C     0.09619   0.42577   0.53105   0.00000  Uiso   1.00
C692   C     0.12076   0.45422   0.85501   0.00000  Uiso   1.00
C693   C     0.19565   0.54454   0.95602   0.00000  Uiso   1.00
C694   C     0.16162   0.56775   0.95667   0.00000  Uiso   1.00
C695   C     0.14749   0.58249   0.65398   0.00000  Uiso   1.00
C696   C     0.08442   0.59365   0.69022   0.00000  Uiso   1.00
C697   C     0.15155   0.41329   0.79134   0.00000  Uiso   1.00
C698   C     0.11145   0.59801   0.65055   0.00000  Uiso   1.00
C699   C     0.08835   0.59908   0.94637   0.00000  Uiso   1.00
C700   C     0.04381   0.61683   0.19428   0.00000  Uiso   1.00
C701   C     0.11480   0.73173   0.02558   0.00000  Uiso   1.00
C702   C     0.15342   0.74489   0.02812   0.00000  Uiso   1.00
C703   C     0.09996   0.75712   0.10697   0.00000  Uiso   1.00
C704   C     0.13628   0.77588   0.10599   0.00000  Uiso   1.00
C705   C     0.05307   0.71308   0.06603   0.00000  Uiso   1.00
C706   C     0.08841   0.73629   0.06509   0.00000  Uiso   1.00
C707   C     0.16349   0.76832   0.06817   0.00000  Uiso   1.00
C708   C     0.04970   0.61799   0.44387   0.00000  Uiso   1.00
C709   C     0.09598   0.75184   0.35791   0.00000  Uiso   1.00
C710   C     0.13240   0.76975   0.35947   0.00000  Uiso   1.00
C711   C     0.11966   0.71803   0.28285   0.00000  Uiso   1.00
C712   C     0.15507   0.73808   0.28658   0.00000  Uiso   1.00
C713   C     0.05278   0.70789   0.31686   0.00000  Uiso   1.00
C714   C     0.09014   0.72699   0.31932   0.00000  Uiso   1.00
C715   C     0.16238   0.76391   0.32361   0.00000  Uiso   1.00
C716   C     0.19933   0.78503   0.32318   0.00000  Uiso   1.00
C717   C     0.20051   0.78828   0.06790   0.00000  Uiso   1.00
C718   C     0.13524   0.77362   0.61842   0.00000  Uiso   1.00
C719   C     0.20087   0.78751   0.58081   0.00000  Uiso   1.00
C720   C     0.04977   0.61791   0.69076   0.00000  Uiso   1.00
C721   C     0.12091   0.71947   0.54881   0.00000  Uiso   1.00
C722   C     0.15825   0.73563   0.54923   0.00000  Uiso   1.00
C723   C     0.09789   0.75798   0.61521   0.00000  Uiso   1.00
C724   C     0.05113   0.71018   0.57666   0.00000  Uiso   1.00
C725   C     0.08970   0.73150   0.57945   0.00000  Uiso   1.00
C726   C     0.16577   0.76374   0.58434   0.00000  Uiso   1.00
C727   C     0.05245   0.62250   0.94491   0.00000  Uiso   1.00
C728   C     0.09488   0.75498   0.85026   0.00000  Uiso   1.00
C729   C     0.13056   0.77455   0.85594   0.00000  Uiso   1.00
C730   C     0.12205   0.72626   0.77250   0.00000  Uiso   1.00
C731   C     0.15695   0.74510   0.77982   0.00000  Uiso   1.00
C732   C     0.05784   0.70675   0.80779   0.00000  Uiso   1.00
C733   C     0.09014   0.73261   0.80641   0.00000  Uiso   1.00
C734   C     0.16189   0.76963   0.82115   0.00000  Uiso   1.00
C735   C     0.19951   0.79036   0.82418   0.00000  Uiso   1.00
C736   C     0.11873   0.60917   0.91402   0.00000  Uiso   1.00
C737   C     0.10390   0.91602   0.47885   0.00000  Uiso   1.00
C738   C     0.13895   0.89881   0.48167   0.00000  Uiso   1.00
C739   C     0.14083   0.90211   0.23811   0.00000  Uiso   1.00
C740   C     0.10760   0.92486   0.23578   0.00000  Uiso   1.00
C741   C     0.20071   0.87532   0.19772   0.00000  Uiso   1.00
C742   C     0.16804   0.90071   0.19837   0.00000  Uiso   1.00
C743   C     0.06111   0.96553   0.19460   0.00000  Uiso   1.00
C744   C     0.09934   0.94413   0.19244   0.00000  Uiso   1.00
C745   C     0.16182   0.92475   0.15624   0.00000  Uiso   1.00
C746   C     0.12795   0.94593   0.15222   0.00000  Uiso   1.00
C747   C     0.16360   0.93268   0.40984   0.00000  Uiso   1.00
C748   C     0.12701   0.95120   0.40800   0.00000  Uiso   1.00
C749   C     0.20413   0.88205   0.44927   0.00000  Uiso   1.00
C750   C     0.16932   0.90595   0.44789   0.00000  Uiso   1.00
C751   C     0.05985   0.96497   0.44277   0.00000  Uiso   1.00
C752   C     0.09667   0.94382   0.44318   0.00000  Uiso   1.00
C753   C     0.13054   0.89621   0.74124   0.00000  Uiso   1.00
C754   C     0.09710   0.91729   0.73577   0.00000  Uiso   1.00
C755   C     0.19874   0.87735   0.70674   0.00000  Uiso   1.00
C756   C     0.16279   0.89995   0.70689   0.00000  Uiso   1.00
C757   C     0.05769   0.96383   0.69387   0.00000  Uiso   1.00
C758   C     0.09134   0.94018   0.69455   0.00000  Uiso   1.00
C759   C     0.15640   0.92171   0.66478   0.00000  Uiso   1.00
C760   C     0.12050   0.94051   0.65491   0.00000  Uiso   1.00
C761   C     0.15647   0.93118   0.89992   0.00000  Uiso   1.00
C762   C     0.11757   0.94480   0.89756   0.00000  Uiso   1.00
C763   C     0.20260   0.88414   0.94215   0.00000  Uiso   1.00
C764   C     0.16573   0.90533   0.94016   0.00000  Uiso   1.00
C765   C     0.05149   0.95607   0.93491   0.00000  Uiso   1.00
C766   C     0.08901   0.93576   0.93493   0.00000  Uiso   1.00
C767   C     0.09806   0.91188   0.97654   0.00000  Uiso   1.00
C768   C     0.13484   0.89578   0.97646   0.00000  Uiso   1.00
C769   C     0.34816   0.07442   0.02460   0.00000  Uiso   1.00
C770   C     0.38516   0.05719   0.02511   0.00000  Uiso   1.00
C771   C     0.30135   0.11781   0.06682   0.00000  Uiso   1.00
C772   C     0.33914   0.09991   0.06342   0.00000  Uiso   1.00
C773   C     0.44841   0.04559   0.06314   0.00000  Uiso   1.00
C774   C     0.41336   0.06804   0.06105   0.00000  Uiso   1.00
C775   C     0.36823   0.11030   0.09815   0.00000  Uiso   1.00
C776   C     0.40511   0.09302   0.09816   0.00000  Uiso   1.00
C777   C     0.37229   0.11426   0.28711   0.00000  Uiso   1.00
C778   C     0.40641   0.09397   0.28950   0.00000  Uiso   1.00
C779   C     0.30187   0.12465   0.31283   0.00000  Uiso   1.00
C780   C     0.33853   0.10373   0.31546   0.00000  Uiso   1.00
C781   C     0.44713   0.04539   0.32368   0.00000  Uiso   1.00
C782   C     0.40953   0.06623   0.32373   0.00000  Uiso   1.00
C783   C     0.34121   0.07431   0.34821   0.00000  Uiso   1.00
C784   C     0.37680   0.05525   0.35381   0.00000  Uiso   1.00
C785   C     0.35008   0.07447   0.53644   0.00000  Uiso   1.00
C786   C     0.38869   0.06063   0.53006   0.00000  Uiso   1.00
C787   C     0.30362   0.12333   0.57037   0.00000  Uiso   1.00
C788   C     0.34039   0.10181   0.57144   0.00000  Uiso   1.00
C789   C     0.45572   0.05007   0.56623   0.00000  Uiso   1.00
C790   C     0.41880   0.07134   0.56454   0.00000  Uiso   1.00
C791   C     0.37205   0.11515   0.60305   0.00000  Uiso   1.00
C792   C     0.41019   0.09796   0.60120   0.00000  Uiso   1.00
C793   C     0.37175   0.11115   0.78416   0.00000  Uiso   1.00
C794   C     0.40796   0.09255   0.78460   0.00000  Uiso   1.00
C795   C     0.30253   0.12206   0.81410   0.00000  Uiso   1.00
C796   C     0.33917   0.10063   0.81280   0.00000  Uiso   1.00
C797   C     0.45077   0.04476   0.81695   0.00000  Uiso   1.00
C798   C     0.41388   0.06527   0.82064   0.00000  Uiso   1.00
C799   C     0.34654   0.07225   0.84801   0.00000  Uiso   1.00
C800   C     0.38287   0.05517   0.85202   0.00000  Uiso   1.00
C801   C     0.40876   0.38891   0.07005   0.00000  Uiso   1.00
C802   C     0.29795   0.21583   0.18932   0.00000  Uiso   1.00
C803   C     0.40983   0.39247   0.32204   0.00000  Uiso   1.00
C804   C     0.41140   0.24008   0.42447   0.00000  Uiso   1.00
C805   C     0.38149   0.27471   0.23318   0.00000  Uiso   1.00
C806   C     0.34635   0.25714   0.23465   0.00000  Uiso   1.00
C807   C     0.39708   0.25141   0.14950   0.00000  Uiso   1.00
C808   C     0.44752   0.28991   0.19942   0.00000  Uiso   1.00
C809   C     0.40827   0.27056   0.19294   0.00000  Uiso   1.00
C810   C     0.30652   0.20873   0.43749   0.00000  Uiso   1.00
C811   C     0.33385   0.23819   0.19097   0.00000  Uiso   1.00
C812   C     0.44436   0.36682   0.06953   0.00000  Uiso   1.00
C813   C     0.37116   0.28999   0.45844   0.00000  Uiso   1.00
C814   C     0.33832   0.26687   0.45798   0.00000  Uiso   1.00
C815   C     0.44289   0.29448   0.44480   0.00000  Uiso   1.00
C816   C     0.40683   0.27372   0.44417   0.00000  Uiso   1.00
C817   C     0.37895   0.38025   0.35383   0.00000  Uiso   1.00
C818   C     0.34109   0.23204   0.43682   0.00000  Uiso   1.00
C819   C     0.44645   0.37190   0.31989   0.00000  Uiso   1.00
C820   C     0.36018   0.23560   0.14899   0.00000  Uiso   1.00
C821   C     0.37887   0.21817   0.42276   0.00000  Uiso   1.00
C822   C     0.38191   0.38856   0.11267   0.00000  Uiso   1.00
C823   C     0.34329   0.39945   0.35322   0.00000  Uiso   1.00
C824   C     0.29434   0.21901   0.69194   0.00000  Uiso   1.00
C825   C     0.40816   0.39050   0.57988   0.00000  Uiso   1.00
C826   C     0.35610   0.23418   0.65164   0.00000  Uiso   1.00
C827   C     0.37464   0.27905   0.73030   0.00000  Uiso   1.00
C828   C     0.33835   0.26427   0.72746   0.00000  Uiso   1.00
C829   C     0.39363   0.24847   0.65229   0.00000  Uiso   1.00
C830   C     0.30195   0.21183   0.93966   0.00000  Uiso   1.00
C831   C     0.44020   0.29345   0.69455   0.00000  Uiso   1.00
C832   C     0.40289   0.27145   0.69338   0.00000  Uiso   1.00
C833   C     0.34109   0.26176   0.97970   0.00000  Uiso   1.00
C834   C     0.32949   0.24115   0.68898   0.00000  Uiso   1.00
C835   C     0.44300   0.36910   0.58021   0.00000  Uiso   1.00
C836   C     0.40111   0.24546   0.91040   0.00000  Uiso   1.00
C837   C     0.36455   0.23004   0.90529   0.00000  Uiso   1.00
C838   C     0.44187   0.29385   0.95107   0.00000  Uiso   1.00
C839   C     0.40609   0.27192   0.95034   0.00000  Uiso   1.00
C840   C     0.33508   0.23759   0.94076   0.00000  Uiso   1.00
C841   C     0.44237   0.37043   0.82119   0.00000  Uiso   1.00
C842   C     0.37760   0.38502   0.85753   0.00000  Uiso   1.00
C843   C     0.37746   0.27765   0.98655   0.00000  Uiso   1.00
C844   C     0.40456   0.39159   0.81871   0.00000  Uiso   1.00
C845   C     0.38127   0.38848   0.61935   0.00000  Uiso   1.00
C846   C     0.34500   0.59293   0.49285   0.00000  Uiso   1.00
C847   C     0.35039   0.41224   0.11333   0.00000  Uiso   1.00
C848   C     0.35620   0.57007   0.40665   0.00000  Uiso   1.00
C849   C     0.36795   0.43467   0.02990   0.00000  Uiso   1.00
C850   C     0.37002   0.44325   0.29225   0.00000  Uiso   1.00
C851   C     0.40362   0.41404   0.03068   0.00000  Uiso   1.00
C852   C     0.39207   0.58974   0.40398   0.00000  Uiso   1.00
C853   C     0.30657   0.45894   0.07166   0.00000  Uiso   1.00
C854   C     0.34076   0.43307   0.07038   0.00000  Uiso   1.00
C855   C     0.29710   0.54832   0.45196   0.00000  Uiso   1.00
C856   C     0.40365   0.57439   0.17242   0.00000  Uiso   1.00
C857   C     0.36616   0.55905   0.17067   0.00000  Uiso   1.00
C858   C     0.40465   0.42425   0.29231   0.00000  Uiso   1.00
C859   C     0.29909   0.54940   0.20287   0.00000  Uiso   1.00
C860   C     0.33562   0.56991   0.20392   0.00000  Uiso   1.00
C861   C     0.33143   0.57273   0.45114   0.00000  Uiso   1.00
C862   C     0.30324   0.45271   0.32564   0.00000  Uiso   1.00
C863   C     0.34039   0.43248   0.32543   0.00000  Uiso   1.00
C864   C     0.34496   0.59616   0.24230   0.00000  Uiso   1.00
C865   C     0.39639   0.41761   0.78228   0.00000  Uiso   1.00
C866   C     0.33276   0.57345   0.94612   0.00000  Uiso   1.00
C867   C     0.36442   0.56085   0.91680   0.00000  Uiso   1.00
C868   C     0.40267   0.57689   0.66874   0.00000  Uiso   1.00
C869   C     0.34455   0.40753   0.61754   0.00000  Uiso   1.00
C870   C     0.34432   0.59625   0.74044   0.00000  Uiso   1.00
C871   C     0.30028   0.45143   0.57898   0.00000  Uiso   1.00
C872   C     0.33729   0.43035   0.57737   0.00000  Uiso   1.00
C873   C     0.40275   0.57710   0.91795   0.00000  Uiso   1.00
C874   C     0.36678   0.43743   0.54364   0.00000  Uiso   1.00
C875   C     0.29755   0.55081   0.94718   0.00000  Uiso   1.00
C876   C     0.29941   0.54953   0.70788   0.00000  Uiso   1.00
C877   C     0.33611   0.56976   0.70635   0.00000  Uiso   1.00
C878   C     0.36110   0.43780   0.78633   0.00000  Uiso   1.00
C879   C     0.40230   0.41812   0.54252   0.00000  Uiso   1.00
C880   C     0.36601   0.56090   0.67057   0.00000  Uiso   1.00
C881   C     0.30210   0.45561   0.83020   0.00000  Uiso   1.00
C882   C     0.33746   0.43287   0.82980   0.00000  Uiso   1.00
C883   C     0.34492   0.40525   0.86453   0.00000  Uiso   1.00
C884   C     0.30535   0.79054   0.32483   0.00000  Uiso   1.00
C885   C     0.37952   0.61334   0.48869   0.00000  Uiso   1.00
C886   C     0.44445   0.62986   0.44810   0.00000  Uiso   1.00
C887   C     0.41239   0.60136   0.20847   0.00000  Uiso   1.00
C888   C     0.36802   0.77459   0.36811   0.00000  Uiso   1.00
C889   C     0.30656   0.79854   0.06669   0.00000  Uiso   1.00
C890   C     0.40484   0.61335   0.44595   0.00000  Uiso   1.00
C891   C     0.44727   0.62353   0.20883   0.00000  Uiso   1.00
C892   C     0.40911   0.76147   0.04439   0.00000  Uiso   1.00
C893   C     0.34251   0.77473   0.06372   0.00000  Uiso   1.00
C894   C     0.44330   0.70570   0.07467   0.00000  Uiso   1.00
C895   C     0.40756   0.72856   0.06965   0.00000  Uiso   1.00
C896   C     0.33975   0.74142   0.09019   0.00000  Uiso   1.00
C897   C     0.37259   0.72025   0.09720   0.00000  Uiso   1.00
C898   C     0.38261   0.61146   0.24245   0.00000  Uiso   1.00
C899   C     0.34758   0.74215   0.29050   0.00000  Uiso   1.00
C900   C     0.38315   0.72153   0.29299   0.00000  Uiso   1.00
C901   C     0.34009   0.76905   0.32841   0.00000  Uiso   1.00
C902   C     0.44506   0.70436   0.33060   0.00000  Uiso   1.00
C903   C     0.41051   0.72895   0.33099   0.00000  Uiso   1.00
C904   C     0.40228   0.75485   0.36947   0.00000  Uiso   1.00
C905   C     0.37703   0.78414   0.04178   0.00000  Uiso   1.00
C906   C     0.40790   0.60561   0.70325   0.00000  Uiso   1.00
C907   C     0.37604   0.62166   0.97532   0.00000  Uiso   1.00
C908   C     0.30261   0.79163   0.57649   0.00000  Uiso   1.00
C909   C     0.37966   0.61309   0.74170   0.00000  Uiso   1.00
C910   C     0.30424   0.78732   0.82726   0.00000  Uiso   1.00
C911   C     0.34074   0.60310   0.97658   0.00000  Uiso   1.00
C912   C     0.36797   0.77501   0.61305   0.00000  Uiso   1.00
C913   C     0.44434   0.62680   0.70507   0.00000  Uiso   1.00
C914   C     0.34529   0.73956   0.53973   0.00000  Uiso   1.00
C915   C     0.38169   0.72109   0.53821   0.00000  Uiso   1.00
C916   C     0.33775   0.76779   0.57739   0.00000  Uiso   1.00
C917   C     0.44652   0.70709   0.57752   0.00000  Uiso   1.00
C918   C     0.41088   0.72971   0.57539   0.00000  Uiso   1.00
C919   C     0.40419   0.75585   0.61249   0.00000  Uiso   1.00
C920   C     0.44525   0.62857   0.94672   0.00000  Uiso   1.00
C921   C     0.34455   0.73667   0.79266   0.00000  Uiso   1.00
C922   C     0.38015   0.71719   0.79070   0.00000  Uiso   1.00
C923   C     0.33824   0.76400   0.83041   0.00000  Uiso   1.00
C924   C     0.44440   0.70433   0.82564   0.00000  Uiso   1.00
C925   C     0.40798   0.72403   0.82824   0.00000  Uiso   1.00
C926   C     0.36990   0.77437   0.86090   0.00000  Uiso   1.00
C927   C     0.40283   0.75201   0.86368   0.00000  Uiso   1.00
C928   C     0.40847   0.60744   0.94754   0.00000  Uiso   1.00
C929   C     0.35378   0.91724   0.48728   0.00000  Uiso   1.00
C930   C     0.41154   0.90004   0.22306   0.00000  Uiso   1.00
C931   C     0.37752   0.87730   0.22185   0.00000  Uiso   1.00
C932   C     0.37752   0.94477   0.16985   0.00000  Uiso   1.00
C933   C     0.34346   0.92464   0.17507   0.00000  Uiso   1.00
C934   C     0.44669   0.95543   0.19391   0.00000  Uiso   1.00
C935   C     0.41195   0.93282   0.19563   0.00000  Uiso   1.00
C936   C     0.30865   0.86745   0.19749   0.00000  Uiso   1.00
C937   C     0.34337   0.88950   0.19769   0.00000  Uiso   1.00
C938   C     0.39063   0.93516   0.48696   0.00000  Uiso   1.00
C939   C     0.41244   0.90165   0.41338   0.00000  Uiso   1.00
C940   C     0.37665   0.88319   0.41548   0.00000  Uiso   1.00
C941   C     0.45386   0.94992   0.45027   0.00000  Uiso   1.00
C942   C     0.41836   0.92870   0.44935   0.00000  Uiso   1.00
C943   C     0.31028   0.86738   0.44643   0.00000  Uiso   1.00
C944   C     0.34783   0.88958   0.45196   0.00000  Uiso   1.00
C945   C     0.35231   0.92324   0.98509   0.00000  Uiso   1.00
C946   C     0.39028   0.93674   0.98577   0.00000  Uiso   1.00
C947   C     0.41382   0.90085   0.70641   0.00000  Uiso   1.00
C948   C     0.37927   0.88172   0.71227   0.00000  Uiso   1.00
C949   C     0.37571   0.95039   0.66913   0.00000  Uiso   1.00
C950   C     0.34293   0.93099   0.67064   0.00000  Uiso   1.00
C951   C     0.44644   0.95821   0.68598   0.00000  Uiso   1.00
C952   C     0.41131   0.93501   0.68403   0.00000  Uiso   1.00
C953   C     0.30698   0.87461   0.69843   0.00000  Uiso   1.00
C954   C     0.34250   0.89704   0.69453   0.00000  Uiso   1.00
C955   C     0.40553   0.90480   0.90854   0.00000  Uiso   1.00
C956   C     0.36722   0.89187   0.90575   0.00000  Uiso   1.00
C957   C     0.45423   0.94819   0.94434   0.00000  Uiso   1.00
C958   C     0.41765   0.92780   0.94879   0.00000  Uiso   1.00
C959   C     0.30467   0.87815   0.94567   0.00000  Uiso   1.00
C960   C     0.34140   0.89923   0.94420   0.00000  Uiso   1.00
C961   C     0.61986   0.05344   0.03981   0.00000  Uiso   1.00
C962   C     0.65578   0.07316   0.03973   0.00000  Uiso   1.00
C963   C     0.59741   0.09050   0.10941   0.00000  Uiso   1.00
C964   C     0.63370   0.10897   0.11206   0.00000  Uiso   1.00
C965   C     0.55422   0.04186   0.07309   0.00000  Uiso   1.00
C966   C     0.59041   0.06265   0.07308   0.00000  Uiso   1.00
C967   C     0.69776   0.12264   0.07246   0.00000  Uiso   1.00
C968   C     0.66196   0.10252   0.07414   0.00000  Uiso   1.00
C969   C     0.61350   0.05678   0.28252   0.00000  Uiso   1.00
C970   C     0.65189   0.07023   0.28282   0.00000  Uiso   1.00
C971   C     0.59803   0.08635   0.35974   0.00000  Uiso   1.00
C972   C     0.63574   0.10199   0.36079   0.00000  Uiso   1.00
C973   C     0.55148   0.04028   0.32047   0.00000  Uiso   1.00
C974   C     0.58667   0.06272   0.32065   0.00000  Uiso   1.00
C975   C     0.69888   0.11609   0.32200   0.00000  Uiso   1.00
C976   C     0.66154   0.09492   0.32103   0.00000  Uiso   1.00
C977   C     0.69158   0.19648   0.44495   0.00000  Uiso   1.00
C978   C     0.62124   0.05210   0.53688   0.00000  Uiso   1.00
C979   C     0.65596   0.07308   0.53539   0.00000  Uiso   1.00
C980   C     0.59767   0.08919   0.60766   0.00000  Uiso   1.00
C981   C     0.63216   0.11158   0.60621   0.00000  Uiso   1.00
C982   C     0.55718   0.04157   0.57253   0.00000  Uiso   1.00
C983   C     0.59280   0.06136   0.57266   0.00000  Uiso   1.00
C984   C     0.69521   0.12666   0.57200   0.00000  Uiso   1.00
C985   C     0.66241   0.10126   0.57321   0.00000  Uiso   1.00
C986   C     0.59782   0.08182   0.86321   0.00000  Uiso   1.00
C987   C     0.63236   0.10372   0.86729   0.00000  Uiso   1.00
C988   C     0.62221   0.05568   0.78430   0.00000  Uiso   1.00
C989   C     0.65683   0.07631   0.78877   0.00000  Uiso   1.00
C990   C     0.55520   0.03778   0.81741   0.00000  Uiso   1.00
C991   C     0.59243   0.05874   0.82166   0.00000  Uiso   1.00
C992   C     0.69360   0.12819   0.82308   0.00000  Uiso   1.00
C993   C     0.66112   0.10183   0.82712   0.00000  Uiso   1.00
C994   C     0.62670   0.21043   0.48454   0.00000  Uiso   1.00
C995   C     0.69721   0.20341   0.19716   0.00000  Uiso   1.00
C996   C     0.61468   0.39831   0.02828   0.00000  Uiso   1.00
C997   C     0.59356   0.23292   0.48864   0.00000  Uiso   1.00
C998   C     0.65641   0.25737   0.16637   0.00000  Uiso   1.00
C999   C     0.62050   0.27497   0.16601   0.00000  Uiso   1.00
C1000  C     0.55619   0.37438   0.32189   0.00000  Uiso   1.00
C1001  C     0.66110   0.22601   0.19683   0.00000  Uiso   1.00
C1002  C     0.55199   0.28559   0.19517   0.00000  Uiso   1.00
C1003  C     0.58979   0.26370   0.19736   0.00000  Uiso   1.00
C1004  C     0.62889   0.21432   0.22527   0.00000  Uiso   1.00
C1005  C     0.59327   0.23310   0.22685   0.00000  Uiso   1.00
C1006  C     0.54967   0.37764   0.06901   0.00000  Uiso   1.00
C1007  C     0.64670   0.24637   0.41080   0.00000  Uiso   1.00
C1008  C     0.61107   0.26660   0.41429   0.00000  Uiso   1.00
C1009  C     0.65524   0.21810   0.44588   0.00000  Uiso   1.00
C1010  C     0.54896   0.28185   0.45359   0.00000  Uiso   1.00
C1011  C     0.58369   0.25836   0.45201   0.00000  Uiso   1.00
C1012  C     0.59354   0.39410   0.32171   0.00000  Uiso   1.00
C1013  C     0.61926   0.39274   0.27940   0.00000  Uiso   1.00
C1014  C     0.63048   0.21982   0.98959   0.00000  Uiso   1.00
C1015  C     0.69506   0.20362   0.94924   0.00000  Uiso   1.00
C1016  C     0.69253   0.20426   0.69627   0.00000  Uiso   1.00
C1017  C     0.54956   0.37734   0.81761   0.00000  Uiso   1.00
C1018  C     0.64498   0.25036   0.65874   0.00000  Uiso   1.00
C1019  C     0.60882   0.27061   0.66113   0.00000  Uiso   1.00
C1020  C     0.65528   0.22415   0.69657   0.00000  Uiso   1.00
C1021  C     0.54562   0.28612   0.70169   0.00000  Uiso   1.00
C1022  C     0.58245   0.26327   0.69935   0.00000  Uiso   1.00
C1023  C     0.59485   0.23689   0.98735   0.00000  Uiso   1.00
C1024  C     0.59067   0.23574   0.73577   0.00000  Uiso   1.00
C1025  C     0.54900   0.37711   0.57001   0.00000  Uiso   1.00
C1026  C     0.65075   0.24991   0.91234   0.00000  Uiso   1.00
C1027  C     0.61329   0.26752   0.90911   0.00000  Uiso   1.00
C1028  C     0.65848   0.22627   0.95084   0.00000  Uiso   1.00
C1029  C     0.54790   0.28415   0.94452   0.00000  Uiso   1.00
C1030  C     0.58413   0.26082   0.94575   0.00000  Uiso   1.00
C1031  C     0.62685   0.21708   0.73479   0.00000  Uiso   1.00
C1032  C     0.61176   0.39773   0.77461   0.00000  Uiso   1.00
C1033  C     0.58548   0.39887   0.56780   0.00000  Uiso   1.00
C1034  C     0.61889   0.38449   0.54415   0.00000  Uiso   1.00
C1035  C     0.65408   0.59334   0.15396   0.00000  Uiso   1.00
C1036  C     0.62595   0.44665   0.11026   0.00000  Uiso   1.00
C1037  C     0.63064   0.55027   0.48466   0.00000  Uiso   1.00
C1038  C     0.64750   0.42080   0.02951   0.00000  Uiso   1.00
C1039  C     0.66502   0.43497   0.32396   0.00000  Uiso   1.00
C1040  C     0.60302   0.41674   0.36358   0.00000  Uiso   1.00
C1041  C     0.70159   0.54631   0.19305   0.00000  Uiso   1.00
C1042  C     0.66450   0.56750   0.19377   0.00000  Uiso   1.00
C1043  C     0.59109   0.42738   0.10407   0.00000  Uiso   1.00
C1044  C     0.63532   0.55734   0.23125   0.00000  Uiso   1.00
C1045  C     0.69829   0.45917   0.31974   0.00000  Uiso   1.00
C1046  C     0.59901   0.57605   0.23486   0.00000  Uiso   1.00
C1047  C     0.69187   0.46393   0.07249   0.00000  Uiso   1.00
C1048  C     0.65616   0.44377   0.07430   0.00000  Uiso   1.00
C1049  C     0.58601   0.40181   0.06591   0.00000  Uiso   1.00
C1050  C     0.63747   0.43615   0.36702   0.00000  Uiso   1.00
C1051  C     0.69746   0.53944   0.44285   0.00000  Uiso   1.00
C1052  C     0.65961   0.55962   0.44569   0.00000  Uiso   1.00
C1053  C     0.65519   0.41330   0.28116   0.00000  Uiso   1.00
C1054  C     0.65134   0.58652   0.40847   0.00000  Uiso   1.00
C1055  C     0.59491   0.56854   0.48612   0.00000  Uiso   1.00
C1056  C     0.58803   0.59697   0.45042   0.00000  Uiso   1.00
C1057  C     0.62090   0.45168   0.59154   0.00000  Uiso   1.00
C1058  C     0.65379   0.40548   0.54011   0.00000  Uiso   1.00
C1059  C     0.58714   0.43327   0.59005   0.00000  Uiso   1.00
C1060  C     0.64507   0.41907   0.77320   0.00000  Uiso   1.00
C1061  C     0.59293   0.42239   0.85611   0.00000  Uiso   1.00
C1062  C     0.60046   0.57839   0.98929   0.00000  Uiso   1.00
C1063  C     0.69442   0.54081   0.69798   0.00000  Uiso   1.00
C1064  C     0.65585   0.56100   0.69780   0.00000  Uiso   1.00
C1065  C     0.62483   0.44349   0.85837   0.00000  Uiso   1.00
C1066  C     0.64888   0.59146   0.66616   0.00000  Uiso   1.00
C1067  C     0.62886   0.55118   0.73589   0.00000  Uiso   1.00
C1068  C     0.59179   0.56974   0.73971   0.00000  Uiso   1.00
C1069  C     0.69297   0.46165   0.56758   0.00000  Uiso   1.00
C1070  C     0.65534   0.43938   0.56530   0.00000  Uiso   1.00
C1071  C     0.69698   0.54111   0.94290   0.00000  Uiso   1.00
C1072  C     0.66030   0.56322   0.94516   0.00000  Uiso   1.00
C1073  C     0.63593   0.55787   0.98681   0.00000  Uiso   1.00
C1074  C     0.65292   0.44168   0.81705   0.00000  Uiso   1.00
C1075  C     0.69273   0.45918   0.81936   0.00000  Uiso   1.00
C1076  C     0.64956   0.58593   0.90425   0.00000  Uiso   1.00
C1077  C     0.58376   0.59639   0.70479   0.00000  Uiso   1.00
C1078  C     0.58434   0.40084   0.81464   0.00000  Uiso   1.00
C1079  C     0.63136   0.78089   0.28845   0.00000  Uiso   1.00
C1080  C     0.65160   0.75225   0.03602   0.00000  Uiso   1.00
C1081  C     0.55414   0.62466   0.19919   0.00000  Uiso   1.00
C1082  C     0.59576   0.76073   0.11294   0.00000  Uiso   1.00
C1083  C     0.63077   0.78176   0.11344   0.00000  Uiso   1.00
C1084  C     0.61596   0.73211   0.03607   0.00000  Uiso   1.00
C1085  C     0.55269   0.71183   0.07670   0.00000  Uiso   1.00
C1086  C     0.58780   0.73565   0.07567   0.00000  Uiso   1.00
C1087  C     0.61834   0.61164   0.16037   0.00000  Uiso   1.00
C1088  C     0.65983   0.77608   0.07505   0.00000  Uiso   1.00
C1089  C     0.55217   0.62007   0.45326   0.00000  Uiso   1.00
C1090  C     0.61956   0.72467   0.35993   0.00000  Uiso   1.00
C1091  C     0.65744   0.73957   0.35561   0.00000  Uiso   1.00
C1092  C     0.59423   0.76355   0.29195   0.00000  Uiso   1.00
C1093  C     0.55057   0.71566   0.32925   0.00000  Uiso   1.00
C1094  C     0.58821   0.73580   0.32842   0.00000  Uiso   1.00
C1095  C     0.66236   0.76857   0.32022   0.00000  Uiso   1.00
C1096  C     0.69790   0.79018   0.31902   0.00000  Uiso   1.00
C1097  C     0.61680   0.60619   0.41432   0.00000  Uiso   1.00
C1098  C     0.69676   0.79649   0.07437   0.00000  Uiso   1.00
C1099  C     0.58990   0.60248   0.19668   0.00000  Uiso   1.00
C1100  C     0.63441   0.77796   0.61326   0.00000  Uiso   1.00
C1101  C     0.58910   0.60165   0.94723   0.00000  Uiso   1.00
C1102  C     0.54682   0.61766   0.70590   0.00000  Uiso   1.00
C1103  C     0.60106   0.75637   0.61788   0.00000  Uiso   1.00
C1104  C     0.62144   0.72102   0.54280   0.00000  Uiso   1.00
C1105  C     0.65398   0.74424   0.53950   0.00000  Uiso   1.00
C1106  C     0.55602   0.70858   0.58115   0.00000  Uiso   1.00
C1107  C     0.59409   0.72783   0.58354   0.00000  Uiso   1.00
C1108  C     0.66416   0.76971   0.57764   0.00000  Uiso   1.00
C1109  C     0.55229   0.62293   0.94935   0.00000  Uiso   1.00
C1110  C     0.61027   0.73085   0.77883   0.00000  Uiso   1.00
C1111  C     0.64801   0.74643   0.77712   0.00000  Uiso   1.00
C1112  C     0.59744   0.76323   0.85758   0.00000  Uiso   1.00
C1113  C     0.63360   0.78126   0.85298   0.00000  Uiso   1.00
C1114  C     0.54804   0.71583   0.82562   0.00000  Uiso   1.00
C1115  C     0.58498   0.73793   0.82108   0.00000  Uiso   1.00
C1116  C     0.65926   0.77049   0.81620   0.00000  Uiso   1.00
C1117  C     0.69883   0.79362   0.57326   0.00000  Uiso   1.00
C1118  C     0.69962   0.78832   0.81619   0.00000  Uiso   1.00
C1119  C     0.60946   0.60659   0.66671   0.00000  Uiso   1.00
C1120  C     0.61287   0.60321   0.90547   0.00000  Uiso   1.00
C1121  C     0.64143   0.90166   0.48294   0.00000  Uiso   1.00
C1122  C     0.66172   0.94076   0.16260   0.00000  Uiso   1.00
C1123  C     0.62416   0.95577   0.15912   0.00000  Uiso   1.00
C1124  C     0.70273   0.88747   0.19701   0.00000  Uiso   1.00
C1125  C     0.66756   0.91115   0.19581   0.00000  Uiso   1.00
C1126  C     0.55702   0.96754   0.19226   0.00000  Uiso   1.00
C1127  C     0.59564   0.94848   0.19593   0.00000  Uiso   1.00
C1128  C     0.64030   0.90446   0.23354   0.00000  Uiso   1.00
C1129  C     0.60474   0.92181   0.23285   0.00000  Uiso   1.00
C1130  C     0.65871   0.93351   0.40429   0.00000  Uiso   1.00
C1131  C     0.62091   0.94813   0.40247   0.00000  Uiso   1.00
C1132  C     0.70498   0.88746   0.44315   0.00000  Uiso   1.00
C1133  C     0.66889   0.90988   0.44447   0.00000  Uiso   1.00
C1134  C     0.55657   0.95915   0.44049   0.00000  Uiso   1.00
C1135  C     0.59380   0.94121   0.44172   0.00000  Uiso   1.00
C1136  C     0.60478   0.91787   0.48277   0.00000  Uiso   1.00
C1137  C     0.60726   0.92155   0.98661   0.00000  Uiso   1.00
C1138  C     0.64331   0.90447   0.98797   0.00000  Uiso   1.00
C1139  C     0.65830   0.93138   0.66564   0.00000  Uiso   1.00
C1140  C     0.62117   0.94606   0.65911   0.00000  Uiso   1.00
C1141  C     0.70668   0.88663   0.70047   0.00000  Uiso   1.00
C1142  C     0.66852   0.90632   0.70276   0.00000  Uiso   1.00
C1143  C     0.55381   0.95636   0.69315   0.00000  Uiso   1.00
C1144  C     0.59155   0.93470   0.69310   0.00000  Uiso   1.00
C1145  C     0.63950   0.89751   0.73870   0.00000  Uiso   1.00
C1146  C     0.60099   0.90777   0.73271   0.00000  Uiso   1.00
C1147  C     0.65651   0.92697   0.90190   0.00000  Uiso   1.00
C1148  C     0.61971   0.94319   0.90058   0.00000  Uiso   1.00
C1149  C     0.70246   0.88179   0.94149   0.00000  Uiso   1.00
C1150  C     0.66721   0.90533   0.94316   0.00000  Uiso   1.00
C1151  C     0.55797   0.96151   0.94294   0.00000  Uiso   1.00
C1152  C     0.59456   0.94088   0.94338   0.00000  Uiso   1.00
C1153  C     0.84394   0.07316   0.03507   0.00000  Uiso   1.00
C1154  C     0.87911   0.05336   0.03252   0.00000  Uiso   1.00
C1155  C     0.80285   0.12000   0.07435   0.00000  Uiso   1.00
C1156  C     0.83774   0.09840   0.07311   0.00000  Uiso   1.00
C1157  C     0.94497   0.03694   0.06716   0.00000  Uiso   1.00
C1158  C     0.90906   0.06029   0.06910   0.00000  Uiso   1.00
C1159  C     0.86975   0.10807   0.10442   0.00000  Uiso   1.00
C1160  C     0.90476   0.08953   0.10381   0.00000  Uiso   1.00
C1161  C     0.84679   0.06834   0.28213   0.00000  Uiso   1.00
C1162  C     0.88345   0.05147   0.28067   0.00000  Uiso   1.00
C1163  C     0.80093   0.11457   0.31832   0.00000  Uiso   1.00
C1164  C     0.83818   0.09419   0.31940   0.00000  Uiso   1.00
C1165  C     0.94901   0.04068   0.31826   0.00000  Uiso   1.00
C1166  C     0.91227   0.06107   0.31915   0.00000  Uiso   1.00
C1167  C     0.86556   0.10248   0.35648   0.00000  Uiso   1.00
C1168  C     0.90251   0.08575   0.35871   0.00000  Uiso   1.00
C1169  C     0.87352   0.11659   0.60297   0.00000  Uiso   1.00
C1170  C     0.90753   0.09607   0.60190   0.00000  Uiso   1.00
C1171  C     0.80416   0.12626   0.57596   0.00000  Uiso   1.00
C1172  C     0.84121   0.10580   0.57461   0.00000  Uiso   1.00
C1173  C     0.94894   0.04588   0.56763   0.00000  Uiso   1.00
C1174  C     0.91045   0.06490   0.57175   0.00000  Uiso   1.00
C1175  C     0.84496   0.07664   0.53862   0.00000  Uiso   1.00
C1176  C     0.87957   0.05694   0.53676   0.00000  Uiso   1.00
C1177  C     0.84360   0.07137   0.78318   0.00000  Uiso   1.00
C1178  C     0.88281   0.05960   0.77783   0.00000  Uiso   1.00
C1179  C     0.79702   0.11672   0.82157   0.00000  Uiso   1.00
C1180  C     0.83264   0.09539   0.82277   0.00000  Uiso   1.00
C1181  C     0.94888   0.04804   0.81383   0.00000  Uiso   1.00
C1182  C     0.91235   0.06925   0.81385   0.00000  Uiso   1.00
C1183  C     0.86322   0.10855   0.85595   0.00000  Uiso   1.00
C1184  C     0.90126   0.09240   0.85488   0.00000  Uiso   1.00
C1185  C     0.90348   0.38977   0.06160   0.00000  Uiso   1.00
C1186  C     0.88171   0.27806   0.23573   0.00000  Uiso   1.00
C1187  C     0.84556   0.26075   0.23383   0.00000  Uiso   1.00
C1188  C     0.90080   0.24421   0.15618   0.00000  Uiso   1.00
C1189  C     0.86437   0.22576   0.15864   0.00000  Uiso   1.00
C1190  C     0.94730   0.29072   0.19598   0.00000  Uiso   1.00
C1191  C     0.91043   0.27006   0.19732   0.00000  Uiso   1.00
C1192  C     0.80222   0.21106   0.20158   0.00000  Uiso   1.00
C1193  C     0.83880   0.23313   0.19768   0.00000  Uiso   1.00
C1194  C     0.93959   0.36727   0.06590   0.00000  Uiso   1.00
C1195  C     0.88254   0.27492   0.47969   0.00000  Uiso   1.00
C1196  C     0.84651   0.25639   0.48296   0.00000  Uiso   1.00
C1197  C     0.89637   0.24758   0.39844   0.00000  Uiso   1.00
C1198  C     0.86162   0.22803   0.40104   0.00000  Uiso   1.00
C1199  C     0.94504   0.29047   0.43715   0.00000  Uiso   1.00
C1200  C     0.90741   0.27243   0.43608   0.00000  Uiso   1.00
C1201  C     0.83611   0.23076   0.44243   0.00000  Uiso   1.00
C1202  C     0.94612   0.37335   0.31857   0.00000  Uiso   1.00
C1203  C     0.80351   0.20548   0.44443   0.00000  Uiso   1.00
C1204  C     0.87777   0.38549   0.28214   0.00000  Uiso   1.00
C1205  C     0.86956   0.37966   0.09011   0.00000  Uiso   1.00
C1206  C     0.90689   0.39361   0.31937   0.00000  Uiso   1.00
C1207  C     0.86450   0.22854   0.73185   0.00000  Uiso   1.00
C1208  C     0.84126   0.26602   0.97575   0.00000  Uiso   1.00
C1209  C     0.80010   0.21325   0.94788   0.00000  Uiso   1.00
C1210  C     0.91057   0.39851   0.56408   0.00000  Uiso   1.00
C1211  C     0.88211   0.39618   0.52252   0.00000  Uiso   1.00
C1212  C     0.90845   0.39346   0.81442   0.00000  Uiso   1.00
C1213  C     0.90059   0.24678   0.72721   0.00000  Uiso   1.00
C1214  C     0.87638   0.28551   0.97359   0.00000  Uiso   1.00
C1215  C     0.86792   0.29156   0.67280   0.00000  Uiso   1.00
C1216  C     0.83376   0.27031   0.67189   0.00000  Uiso   1.00
C1217  C     0.93928   0.29746   0.69660   0.00000  Uiso   1.00
C1218  C     0.90178   0.28050   0.70049   0.00000  Uiso   1.00
C1219  C     0.83116   0.23984   0.70436   0.00000  Uiso   1.00
C1220  C     0.94492   0.37492   0.56631   0.00000  Uiso   1.00
C1221  C     0.87920   0.38199   0.77896   0.00000  Uiso   1.00
C1222  C     0.90106   0.24440   0.90892   0.00000  Uiso   1.00
C1223  C     0.86447   0.22594   0.90897   0.00000  Uiso   1.00
C1224  C     0.94470   0.29397   0.93968   0.00000  Uiso   1.00
C1225  C     0.90570   0.27566   0.93881   0.00000  Uiso   1.00
C1226  C     0.83593   0.23613   0.94429   0.00000  Uiso   1.00
C1227  C     0.94558   0.37337   0.81645   0.00000  Uiso   1.00
C1228  C     0.79486   0.21726   0.70043   0.00000  Uiso   1.00
C1229  C     0.84276   0.59603   0.16026   0.00000  Uiso   1.00
C1230  C     0.80410   0.54362   0.44999   0.00000  Uiso   1.00
C1231  C     0.83765   0.56718   0.44627   0.00000  Uiso   1.00
C1232  C     0.87198   0.44701   0.03884   0.00000  Uiso   1.00
C1233  C     0.90686   0.57875   0.22101   0.00000  Uiso   1.00
C1234  C     0.90543   0.42336   0.03759   0.00000  Uiso   1.00
C1235  C     0.87403   0.55595   0.21977   0.00000  Uiso   1.00
C1236  C     0.80235   0.45753   0.06668   0.00000  Uiso   1.00
C1237  C     0.83653   0.43500   0.06357   0.00000  Uiso   1.00
C1238  C     0.87098   0.55473   0.41929   0.00000  Uiso   1.00
C1239  C     0.89819   0.41781   0.35852   0.00000  Uiso   1.00
C1240  C     0.90671   0.57268   0.41899   0.00000  Uiso   1.00
C1241  C     0.80356   0.54533   0.19387   0.00000  Uiso   1.00
C1242  C     0.84057   0.56609   0.19220   0.00000  Uiso   1.00
C1243  C     0.79893   0.45435   0.31857   0.00000  Uiso   1.00
C1244  C     0.83362   0.43114   0.32170   0.00000  Uiso   1.00
C1245  C     0.86097   0.43619   0.36046   0.00000  Uiso   1.00
C1246  C     0.83470   0.40120   0.08911   0.00000  Uiso   1.00
C1247  C     0.84293   0.59686   0.47989   0.00000  Uiso   1.00
C1248  C     0.84005   0.40291   0.28407   0.00000  Uiso   1.00
C1249  C     0.86620   0.44139   0.84793   0.00000  Uiso   1.00
C1250  C     0.90343   0.42168   0.60721   0.00000  Uiso   1.00
C1251  C     0.84700   0.41573   0.52655   0.00000  Uiso   1.00
C1252  C     0.83876   0.56827   0.93684   0.00000  Uiso   1.00
C1253  C     0.90117   0.42275   0.84735   0.00000  Uiso   1.00
C1254  C     0.86558   0.43703   0.61292   0.00000  Uiso   1.00
C1255  C     0.90019   0.57996   0.65698   0.00000  Uiso   1.00
C1256  C     0.80126   0.45744   0.57169   0.00000  Uiso   1.00
C1257  C     0.83747   0.43505   0.57191   0.00000  Uiso   1.00
C1258  C     0.84221   0.40182   0.77885   0.00000  Uiso   1.00
C1259  C     0.86231   0.56459   0.65569   0.00000  Uiso   1.00
C1260  C     0.90360   0.57883   0.90058   0.00000  Uiso   1.00
C1261  C     0.80009   0.54554   0.69524   0.00000  Uiso   1.00
C1262  C     0.83557   0.56796   0.69664   0.00000  Uiso   1.00
C1263  C     0.80252   0.54615   0.94020   0.00000  Uiso   1.00
C1264  C     0.87007   0.55916   0.90337   0.00000  Uiso   1.00
C1265  C     0.79792   0.45191   0.81413   0.00000  Uiso   1.00
C1266  C     0.83540   0.43069   0.81461   0.00000  Uiso   1.00
C1267  C     0.84634   0.59658   0.97241   0.00000  Uiso   1.00
C1268  C     0.84539   0.59214   0.73730   0.00000  Uiso   1.00
C1269  C     0.90951   0.60822   0.18631   0.00000  Uiso   1.00
C1270  C     0.90922   0.60470   0.44884   0.00000  Uiso   1.00
C1271  C     0.87833   0.61621   0.48115   0.00000  Uiso   1.00
C1272  C     0.86683   0.77637   0.10831   0.00000  Uiso   1.00
C1273  C     0.84540   0.74160   0.03431   0.00000  Uiso   1.00
C1274  C     0.86617   0.77413   0.35955   0.00000  Uiso   1.00
C1275  C     0.80328   0.79179   0.07064   0.00000  Uiso   1.00
C1276  C     0.94315   0.63208   0.18948   0.00000  Uiso   1.00
C1277  C     0.88273   0.72681   0.02959   0.00000  Uiso   1.00
C1278  C     0.83724   0.76824   0.07239   0.00000  Uiso   1.00
C1279  C     0.94852   0.71073   0.06739   0.00000  Uiso   1.00
C1280  C     0.91026   0.73229   0.06895   0.00000  Uiso   1.00
C1281  C     0.87678   0.61711   0.15611   0.00000  Uiso   1.00
C1282  C     0.90274   0.75669   0.10844   0.00000  Uiso   1.00
C1283  C     0.94381   0.62851   0.44428   0.00000  Uiso   1.00
C1284  C     0.84861   0.74699   0.27944   0.00000  Uiso   1.00
C1285  C     0.88435   0.72876   0.27747   0.00000  Uiso   1.00
C1286  C     0.84008   0.76987   0.31949   0.00000  Uiso   1.00
C1287  C     0.94677   0.70591   0.31880   0.00000  Uiso   1.00
C1288  C     0.91042   0.72804   0.32059   0.00000  Uiso   1.00
C1289  C     0.90071   0.75449   0.35993   0.00000  Uiso   1.00
C1290  C     0.80456   0.79312   0.32144   0.00000  Uiso   1.00
C1291  C     0.90956   0.60279   0.69675   0.00000  Uiso   1.00
C1292  C     0.88059   0.61844   0.96857   0.00000  Uiso   1.00
C1293  C     0.84581   0.74360   0.53223   0.00000  Uiso   1.00
C1294  C     0.80249   0.79386   0.57207   0.00000  Uiso   1.00
C1295  C     0.90981   0.60934   0.93262   0.00000  Uiso   1.00
C1296  C     0.94658   0.62448   0.69433   0.00000  Uiso   1.00
C1297  C     0.87954   0.72315   0.53121   0.00000  Uiso   1.00
C1298  C     0.87100   0.77565   0.85424   0.00000  Uiso   1.00
C1299  C     0.83883   0.76852   0.57106   0.00000  Uiso   1.00
C1300  C     0.94639   0.71028   0.56360   0.00000  Uiso   1.00
C1301  C     0.91073   0.73294   0.56391   0.00000  Uiso   1.00
C1302  C     0.86757   0.77561   0.60836   0.00000  Uiso   1.00
C1303  C     0.90379   0.75708   0.60384   0.00000  Uiso   1.00
C1304  C     0.94581   0.63174   0.93469   0.00000  Uiso   1.00
C1305  C     0.80638   0.79223   0.81912   0.00000  Uiso   1.00
C1306  C     0.84625   0.73966   0.78234   0.00000  Uiso   1.00
C1307  C     0.87953   0.71795   0.78480   0.00000  Uiso   1.00
C1308  C     0.83934   0.76645   0.82110   0.00000  Uiso   1.00
C1309  C     0.94655   0.70591   0.81389   0.00000  Uiso   1.00
C1310  C     0.91022   0.72679   0.81790   0.00000  Uiso   1.00
C1311  C     0.90568   0.75592   0.85156   0.00000  Uiso   1.00
C1312  C     0.88306   0.60848   0.73556   0.00000  Uiso   1.00
C1313  C     0.89889   0.92573   0.49258   0.00000  Uiso   1.00
C1314  C     0.86087   0.90965   0.49229   0.00000  Uiso   1.00
C1315  C     0.89078   0.93879   0.22945   0.00000  Uiso   1.00
C1316  C     0.85548   0.92032   0.23177   0.00000  Uiso   1.00
C1317  C     0.91313   0.89490   0.16469   0.00000  Uiso   1.00
C1318  C     0.87722   0.87675   0.16752   0.00000  Uiso   1.00
C1319  C     0.95572   0.94803   0.19149   0.00000  Uiso   1.00
C1320  C     0.91983   0.92510   0.19545   0.00000  Uiso   1.00
C1321  C     0.80877   0.87220   0.19879   0.00000  Uiso   1.00
C1322  C     0.84713   0.89061   0.20016   0.00000  Uiso   1.00
C1323  C     0.90963   0.90391   0.40563   0.00000  Uiso   1.00
C1324  C     0.87328   0.88587   0.40641   0.00000  Uiso   1.00
C1325  C     0.95758   0.95220   0.44496   0.00000  Uiso   1.00
C1326  C     0.92115   0.92612   0.44639   0.00000  Uiso   1.00
C1327  C     0.80871   0.87112   0.44953   0.00000  Uiso   1.00
C1328  C     0.84739   0.88951   0.44946   0.00000  Uiso   1.00
C1329  C     0.90901   0.90043   0.95910   0.00000  Uiso   1.00
C1330  C     0.88802   0.93890   0.72795   0.00000  Uiso   1.00
C1331  C     0.85242   0.92093   0.72359   0.00000  Uiso   1.00
C1332  C     0.91527   0.89833   0.66169   0.00000  Uiso   1.00
C1333  C     0.87936   0.88122   0.65936   0.00000  Uiso   1.00
C1334  C     0.95290   0.95472   0.69232   0.00000  Uiso   1.00
C1335  C     0.91923   0.92909   0.69448   0.00000  Uiso   1.00
C1336  C     0.81094   0.87198   0.69327   0.00000  Uiso   1.00
C1337  C     0.84706   0.89163   0.69161   0.00000  Uiso   1.00
C1338  C     0.87485   0.94713   0.91332   0.00000  Uiso   1.00
C1339  C     0.84003   0.92523   0.91597   0.00000  Uiso   1.00
C1340  C     0.94511   0.95739   0.93591   0.00000  Uiso   1.00
C1341  C     0.90894   0.93464   0.93367   0.00000  Uiso   1.00
C1342  C     0.80476   0.87045   0.94411   0.00000  Uiso   1.00
C1343  C     0.84057   0.89253   0.94116   0.00000  Uiso   1.00
C1344  C     0.87619   0.87959   0.95848   0.00000  Uiso   1.00
O1345  O     0.20889   0.19453   0.14327   0.00000  Uiso   1.00
O1346  O     0.20692   0.14067   0.02072   0.00000  Uiso   1.00
O1347  O     0.21251   0.19612   0.48555   0.00000  Uiso   1.00
O1348  O     0.21037   0.14117   0.36125   0.00000  Uiso   1.00
O1349  O     0.04149   0.03211   0.36590   0.00000  Uiso   1.00
O1350  O     0.20749   0.14079   0.27470   0.00000  Uiso   1.00
O1351  O     0.20982   0.13537   0.10860   0.00000  Uiso   1.00
O1352  O     0.04007   0.03607   0.27641   0.00000  Uiso   1.00
O1353  O     0.03847   0.02725   0.10556   0.00000  Uiso   1.00
O1354  O     0.03600   0.02845   0.01805   0.00000  Uiso   1.00
O1355  O     0.21325   0.19807   0.39715   0.00000  Uiso   1.00
O1356  O     0.21072   0.19967   0.23192   0.00000  Uiso   1.00
O1357  O     0.21100   0.13766   0.85920   0.00000  Uiso   1.00
O1358  O     0.03828   0.03219   0.86059   0.00000  Uiso   1.00
O1359  O     0.21524   0.13488   0.52246   0.00000  Uiso   1.00
O1360  O     0.20805   0.13917   0.77297   0.00000  Uiso   1.00
O1361  O     0.03717   0.03836   0.77483   0.00000  Uiso   1.00
O1362  O     0.21436   0.13530   0.60856   0.00000  Uiso   1.00
O1363  O     0.04665   0.02908   0.61042   0.00000  Uiso   1.00
O1364  O     0.03970   0.03571   0.52435   0.00000  Uiso   1.00
O1365  O     0.21187   0.19619   0.89894   0.00000  Uiso   1.00
O1366  O     0.20656   0.19333   0.64639   0.00000  Uiso   1.00
O1367  O     0.20810   0.19881   0.73441   0.00000  Uiso   1.00
O1368  O     0.03640   0.37013   0.27655   0.00000  Uiso   1.00
O1369  O     0.03942   0.29960   0.23501   0.00000  Uiso   1.00
O1370  O     0.03989   0.36709   0.36239   0.00000  Uiso   1.00
O1371  O     0.03043   0.29517   0.14911   0.00000  Uiso   1.00
O1372  O     0.03651   0.29703   0.49088   0.00000  Uiso   1.00
O1373  O     0.03736   0.29681   0.40190   0.00000  Uiso   1.00
O1374  O     0.03496   0.36736   0.11550   0.00000  Uiso   1.00
O1375  O     0.03866   0.36608   0.02625   0.00000  Uiso   1.00
O1376  O     0.03930   0.36422   0.77415   0.00000  Uiso   1.00
O1377  O     0.02915   0.29633   0.64806   0.00000  Uiso   1.00
O1378  O     0.03483   0.37138   0.86084   0.00000  Uiso   1.00
O1379  O     0.21304   0.20037   0.98693   0.00000  Uiso   1.00
O1380  O     0.03794   0.29680   0.98693   0.00000  Uiso   1.00
O1381  O     0.03654   0.29905   0.89856   0.00000  Uiso   1.00
O1382  O     0.03411   0.29757   0.73450   0.00000  Uiso   1.00
O1383  O     0.03579   0.36450   0.52541   0.00000  Uiso   1.00
O1384  O     0.03624   0.36664   0.61439   0.00000  Uiso   1.00
O1385  O     0.21385   0.46944   0.28410   0.00000  Uiso   1.00
O1386  O     0.20896   0.52934   0.49556   0.00000  Uiso   1.00
O1387  O     0.21057   0.52660   0.40770   0.00000  Uiso   1.00
O1388  O     0.20854   0.52571   0.15852   0.00000  Uiso   1.00
O1389  O     0.21096   0.46784   0.37226   0.00000  Uiso   1.00
O1390  O     0.20724   0.52583   0.24481   0.00000  Uiso   1.00
O1391  O     0.21301   0.47125   0.12064   0.00000  Uiso   1.00
O1392  O     0.21066   0.47114   0.03178   0.00000  Uiso   1.00
O1393  O     0.20833   0.47364   0.78279   0.00000  Uiso   1.00
O1394  O     0.20663   0.52493   0.65377   0.00000  Uiso   1.00
O1395  O     0.21089   0.53039   0.73857   0.00000  Uiso   1.00
O1396  O     0.21007   0.47326   0.53467   0.00000  Uiso   1.00
O1397  O     0.20851   0.53102   0.91469   0.00000  Uiso   1.00
O1398  O     0.20963   0.53474   0.99917   0.00000  Uiso   1.00
O1399  O     0.20730   0.47194   0.87127   0.00000  Uiso   1.00
O1400  O     0.21165   0.46808   0.62102   0.00000  Uiso   1.00
O1401  O     0.03562   0.62873   0.40093   0.00000  Uiso   1.00
O1402  O     0.03891   0.69776   0.27241   0.00000  Uiso   1.00
O1403  O     0.03821   0.70355   0.02191   0.00000  Uiso   1.00
O1404  O     0.21347   0.79533   0.27858   0.00000  Uiso   1.00
O1405  O     0.03940   0.69841   0.36093   0.00000  Uiso   1.00
O1406  O     0.04309   0.69858   0.11062   0.00000  Uiso   1.00
O1407  O     0.03864   0.63209   0.48839   0.00000  Uiso   1.00
O1408  O     0.03362   0.63218   0.15062   0.00000  Uiso   1.00
O1409  O     0.02697   0.62658   0.23624   0.00000  Uiso   1.00
O1410  O     0.21238   0.79783   0.36738   0.00000  Uiso   1.00
O1411  O     0.21834   0.79877   0.02316   0.00000  Uiso   1.00
O1412  O     0.04005   0.63386   0.90044   0.00000  Uiso   1.00
O1413  O     0.04198   0.69605   0.76566   0.00000  Uiso   1.00
O1414  O     0.03827   0.70105   0.53029   0.00000  Uiso   1.00
O1415  O     0.04244   0.69789   0.85359   0.00000  Uiso   1.00
O1416  O     0.03599   0.63276   0.98802   0.00000  Uiso   1.00
O1417  O     0.03436   0.62945   0.64889   0.00000  Uiso   1.00
O1418  O     0.03967   0.63211   0.73415   0.00000  Uiso   1.00
O1419  O     0.03615   0.69796   0.61908   0.00000  Uiso   1.00
O1420  O     0.22149   0.79296   0.78242   0.00000  Uiso   1.00
O1421  O     0.21362   0.79770   0.53450   0.00000  Uiso   1.00
O1422  O     0.04574   0.97776   0.48579   0.00000  Uiso   1.00
O1423  O     0.04451   0.97052   0.15084   0.00000  Uiso   1.00
O1424  O     0.21428   0.86557   0.15377   0.00000  Uiso   1.00
O1425  O     0.04634   0.97968   0.23672   0.00000  Uiso   1.00
O1426  O     0.21523   0.86390   0.24023   0.00000  Uiso   1.00
O1427  O     0.04506   0.96963   0.39900   0.00000  Uiso   1.00
O1428  O     0.21506   0.86905   0.40600   0.00000  Uiso   1.00
O1429  O     0.21447   0.86790   0.49343   0.00000  Uiso   1.00
O1430  O     0.21127   0.80062   0.11356   0.00000  Uiso   1.00
O1431  O     0.20997   0.80342   0.62413   0.00000  Uiso   1.00
O1432  O     0.21211   0.86897   0.98683   0.00000  Uiso   1.00
O1433  O     0.04294   0.97070   0.64890   0.00000  Uiso   1.00
O1434  O     0.21726   0.87366   0.66141   0.00000  Uiso   1.00
O1435  O     0.04280   0.97691   0.73663   0.00000  Uiso   1.00
O1436  O     0.21198   0.86081   0.74641   0.00000  Uiso   1.00
O1437  O     0.03962   0.97157   0.89116   0.00000  Uiso   1.00
O1438  O     0.21806   0.87344   0.89940   0.00000  Uiso   1.00
O1439  O     0.03618   0.96511   0.98197   0.00000  Uiso   1.00
O1440  O     0.20911   0.80907   0.86338   0.00000  Uiso   1.00
O1441  O     0.46466   0.03941   0.27923   0.00000  Uiso   1.00
O1442  O     0.45878   0.02946   0.36716   0.00000  Uiso   1.00
O1443  O     0.28508   0.13288   0.35727   0.00000  Uiso   1.00
O1444  O     0.46385   0.03352   0.02152   0.00000  Uiso   1.00
O1445  O     0.28682   0.12928   0.02388   0.00000  Uiso   1.00
O1446  O     0.46113   0.03388   0.10796   0.00000  Uiso   1.00
O1447  O     0.28828   0.13134   0.10990   0.00000  Uiso   1.00
O1448  O     0.28924   0.13696   0.26891   0.00000  Uiso   1.00
O1449  O     0.29314   0.19795   0.48161   0.00000  Uiso   1.00
O1450  O     0.29100   0.19979   0.39423   0.00000  Uiso   1.00
O1451  O     0.46583   0.03273   0.85986   0.00000  Uiso   1.00
O1452  O     0.46197   0.03261   0.77246   0.00000  Uiso   1.00
O1453  O     0.28994   0.13212   0.85764   0.00000  Uiso   1.00
O1454  O     0.29147   0.13725   0.61470   0.00000  Uiso   1.00
O1455  O     0.28734   0.13283   0.77147   0.00000  Uiso   1.00
O1456  O     0.46607   0.03471   0.52488   0.00000  Uiso   1.00
O1457  O     0.28954   0.13125   0.52539   0.00000  Uiso   1.00
O1458  O     0.46836   0.03970   0.61035   0.00000  Uiso   1.00
O1459  O     0.29014   0.19970   0.98432   0.00000  Uiso   1.00
O1460  O     0.46259   0.30103   0.40159   0.00000  Uiso   1.00
O1461  O     0.45676   0.30225   0.48999   0.00000  Uiso   1.00
O1462  O     0.46234   0.36017   0.36416   0.00000  Uiso   1.00
O1463  O     0.45899   0.30278   0.24304   0.00000  Uiso   1.00
O1464  O     0.46547   0.29829   0.15660   0.00000  Uiso   1.00
O1465  O     0.45744   0.35675   0.02779   0.00000  Uiso   1.00
O1466  O     0.45853   0.35639   0.11439   0.00000  Uiso   1.00
O1467  O     0.46010   0.36322   0.27532   0.00000  Uiso   1.00
O1468  O     0.28588   0.20149   0.14592   0.00000  Uiso   1.00
O1469  O     0.28522   0.20167   0.23220   0.00000  Uiso   1.00
O1470  O     0.45623   0.30469   0.90677   0.00000  Uiso   1.00
O1471  O     0.45632   0.35915   0.77910   0.00000  Uiso   1.00
O1472  O     0.28057   0.20666   0.64877   0.00000  Uiso   1.00
O1473  O     0.45514   0.30329   0.99581   0.00000  Uiso   1.00
O1474  O     0.45818   0.36366   0.86532   0.00000  Uiso   1.00
O1475  O     0.45587   0.29902   0.74022   0.00000  Uiso   1.00
O1476  O     0.28526   0.20400   0.73605   0.00000  Uiso   1.00
O1477  O     0.45470   0.30656   0.65391   0.00000  Uiso   1.00
O1478  O     0.45861   0.35780   0.53847   0.00000  Uiso   1.00
O1479  O     0.45846   0.36324   0.62487   0.00000  Uiso   1.00
O1480  O     0.28897   0.20127   0.89549   0.00000  Uiso   1.00
O1481  O     0.28957   0.46535   0.11586   0.00000  Uiso   1.00
O1482  O     0.29058   0.46611   0.36750   0.00000  Uiso   1.00
O1483  O     0.28566   0.53708   0.16049   0.00000  Uiso   1.00
O1484  O     0.29282   0.47295   0.02928   0.00000  Uiso   1.00
O1485  O     0.28423   0.53711   0.49659   0.00000  Uiso   1.00
O1486  O     0.28847   0.53198   0.40980   0.00000  Uiso   1.00
O1487  O     0.28610   0.53668   0.24537   0.00000  Uiso   1.00
O1488  O     0.28894   0.46332   0.28031   0.00000  Uiso   1.00
O1489  O     0.29016   0.46727   0.62037   0.00000  Uiso   1.00
O1490  O     0.28741   0.46518   0.87331   0.00000  Uiso   1.00
O1491  O     0.28405   0.53989   0.99117   0.00000  Uiso   1.00
O1492  O     0.28522   0.53885   0.66280   0.00000  Uiso   1.00
O1493  O     0.28592   0.46369   0.53472   0.00000  Uiso   1.00
O1494  O     0.28865   0.46640   0.78643   0.00000  Uiso   1.00
O1495  O     0.28476   0.53481   0.90501   0.00000  Uiso   1.00
O1496  O     0.28882   0.53526   0.75065   0.00000  Uiso   1.00
O1497  O     0.46379   0.69975   0.37396   0.00000  Uiso   1.00
O1498  O     0.45718   0.69137   0.28750   0.00000  Uiso   1.00
O1499  O     0.45908   0.64203   0.40638   0.00000  Uiso   1.00
O1500  O     0.45516   0.69364   0.12019   0.00000  Uiso   1.00
O1501  O     0.46379   0.70243   0.03262   0.00000  Uiso   1.00
O1502  O     0.46310   0.63021   0.25277   0.00000  Uiso   1.00
O1503  O     0.45998   0.63661   0.16562   0.00000  Uiso   1.00
O1504  O     0.46232   0.63444   0.49398   0.00000  Uiso   1.00
O1505  O     0.29121   0.79886   0.28003   0.00000  Uiso   1.00
O1506  O     0.28711   0.79944   0.10976   0.00000  Uiso   1.00
O1507  O     0.45939   0.69515   0.62219   0.00000  Uiso   1.00
O1508  O     0.45727   0.63981   0.99045   0.00000  Uiso   1.00
O1509  O     0.46181   0.69540   0.86830   0.00000  Uiso   1.00
O1510  O     0.46275   0.69731   0.53378   0.00000  Uiso   1.00
O1511  O     0.45936   0.69757   0.78066   0.00000  Uiso   1.00
O1512  O     0.46247   0.63800   0.90394   0.00000  Uiso   1.00
O1513  O     0.29136   0.79942   0.78370   0.00000  Uiso   1.00
O1514  O     0.45706   0.63669   0.66082   0.00000  Uiso   1.00
O1515  O     0.45977   0.63507   0.74758   0.00000  Uiso   1.00
O1516  O     0.29202   0.86203   0.40236   0.00000  Uiso   1.00
O1517  O     0.29543   0.85624   0.49133   0.00000  Uiso   1.00
O1518  O     0.46573   0.95993   0.40581   0.00000  Uiso   1.00
O1519  O     0.46435   0.96429   0.15155   0.00000  Uiso   1.00
O1520  O     0.29059   0.86218   0.15381   0.00000  Uiso   1.00
O1521  O     0.29348   0.85689   0.24253   0.00000  Uiso   1.00
O1522  O     0.46797   0.96481   0.49291   0.00000  Uiso   1.00
O1523  O     0.45778   0.96837   0.23705   0.00000  Uiso   1.00
O1524  O     0.29589   0.81388   0.02517   0.00000  Uiso   1.00
O1525  O     0.29197   0.80480   0.36823   0.00000  Uiso   1.00
O1526  O     0.46154   0.96419   0.89914   0.00000  Uiso   1.00
O1527  O     0.29114   0.86655   0.90327   0.00000  Uiso   1.00
O1528  O     0.29031   0.86737   0.65612   0.00000  Uiso   1.00
O1529  O     0.46289   0.96916   0.64376   0.00000  Uiso   1.00
O1530  O     0.29634   0.86007   0.74115   0.00000  Uiso   1.00
O1531  O     0.29036   0.86892   0.99030   0.00000  Uiso   1.00
O1532  O     0.46406   0.96340   0.73064   0.00000  Uiso   1.00
O1533  O     0.46832   0.96081   0.98691   0.00000  Uiso   1.00
O1534  O     0.29104   0.80103   0.86908   0.00000  Uiso   1.00
O1535  O     0.29145   0.80611   0.61898   0.00000  Uiso   1.00
O1536  O     0.28769   0.80035   0.53242   0.00000  Uiso   1.00
O1537  O     0.70517   0.18341   0.40113   0.00000  Uiso   1.00
O1538  O     0.53996   0.03115   0.02897   0.00000  Uiso   1.00
O1539  O     0.71083   0.19284   0.23997   0.00000  Uiso   1.00
O1540  O     0.71014   0.19162   0.49053   0.00000  Uiso   1.00
O1541  O     0.71294   0.13548   0.02881   0.00000  Uiso   1.00
O1542  O     0.71697   0.12082   0.36478   0.00000  Uiso   1.00
O1543  O     0.53474   0.03202   0.27614   0.00000  Uiso   1.00
O1544  O     0.71034   0.13293   0.11657   0.00000  Uiso   1.00
O1545  O     0.71103   0.13027   0.27892   0.00000  Uiso   1.00
O1546  O     0.53874   0.03170   0.11716   0.00000  Uiso   1.00
O1547  O     0.53962   0.02502   0.36411   0.00000  Uiso   1.00
O1548  O     0.70977   0.19223   0.15329   0.00000  Uiso   1.00
O1549  O     0.71076   0.13763   0.86588   0.00000  Uiso   1.00
O1550  O     0.54251   0.02702   0.77230   0.00000  Uiso   1.00
O1551  O     0.54244   0.03053   0.52773   0.00000  Uiso   1.00
O1552  O     0.71261   0.13133   0.52782   0.00000  Uiso   1.00
O1553  O     0.70714   0.13674   0.77749   0.00000  Uiso   1.00
O1554  O     0.70894   0.14107   0.61297   0.00000  Uiso   1.00
O1555  O     0.54119   0.03143   0.61587   0.00000  Uiso   1.00
O1556  O     0.54021   0.02652   0.86026   0.00000  Uiso   1.00
O1557  O     0.70766   0.19369   0.74076   0.00000  Uiso   1.00
O1558  O     0.71023   0.19503   0.90482   0.00000  Uiso   1.00
O1559  O     0.71044   0.19192   0.99175   0.00000  Uiso   1.00
O1560  O     0.71074   0.19811   0.65382   0.00000  Uiso   1.00
O1561  O     0.53876   0.36656   0.27730   0.00000  Uiso   1.00
O1562  O     0.53960   0.36346   0.11373   0.00000  Uiso   1.00
O1563  O     0.53414   0.29544   0.23966   0.00000  Uiso   1.00
O1564  O     0.54015   0.36390   0.36380   0.00000  Uiso   1.00
O1565  O     0.53993   0.29671   0.15037   0.00000  Uiso   1.00
O1566  O     0.53367   0.29191   0.49789   0.00000  Uiso   1.00
O1567  O     0.53812   0.29805   0.41033   0.00000  Uiso   1.00
O1568  O     0.53254   0.36757   0.02651   0.00000  Uiso   1.00
O1569  O     0.53416   0.36223   0.77641   0.00000  Uiso   1.00
O1570  O     0.53414   0.30181   0.66040   0.00000  Uiso   1.00
O1571  O     0.53466   0.37060   0.86277   0.00000  Uiso   1.00
O1572  O     0.53202   0.29368   0.98869   0.00000  Uiso   1.00
O1573  O     0.53801   0.30010   0.90090   0.00000  Uiso   1.00
O1574  O     0.53236   0.29717   0.74741   0.00000  Uiso   1.00
O1575  O     0.53531   0.36378   0.52740   0.00000  Uiso   1.00
O1576  O     0.53532   0.36597   0.61635   0.00000  Uiso   1.00
O1577  O     0.71376   0.47012   0.36327   0.00000  Uiso   1.00
O1578  O     0.71494   0.53426   0.23717   0.00000  Uiso   1.00
O1579  O     0.71260   0.53374   0.14805   0.00000  Uiso   1.00
O1580  O     0.71284   0.46801   0.27266   0.00000  Uiso   1.00
O1581  O     0.71272   0.53215   0.39842   0.00000  Uiso   1.00
O1582  O     0.70803   0.47269   0.02651   0.00000  Uiso   1.00
O1583  O     0.70992   0.52783   0.48562   0.00000  Uiso   1.00
O1584  O     0.70678   0.47627   0.11505   0.00000  Uiso   1.00
O1585  O     0.70879   0.46969   0.77519   0.00000  Uiso   1.00
O1586  O     0.70820   0.52936   0.65344   0.00000  Uiso   1.00
O1587  O     0.70954   0.47041   0.52340   0.00000  Uiso   1.00
O1588  O     0.70841   0.52697   0.90000   0.00000  Uiso   1.00
O1589  O     0.70682   0.47328   0.61152   0.00000  Uiso   1.00
O1590  O     0.70999   0.52931   0.74143   0.00000  Uiso   1.00
O1591  O     0.70971   0.46698   0.86246   0.00000  Uiso   1.00
O1592  O     0.71598   0.53468   0.98568   0.00000  Uiso   1.00
O1593  O     0.54179   0.63593   0.41244   0.00000  Uiso   1.00
O1594  O     0.53605   0.70223   0.28621   0.00000  Uiso   1.00
O1595  O     0.54036   0.69753   0.03351   0.00000  Uiso   1.00
O1596  O     0.53708   0.70481   0.37393   0.00000  Uiso   1.00
O1597  O     0.53832   0.62773   0.49839   0.00000  Uiso   1.00
O1598  O     0.53879   0.63581   0.15630   0.00000  Uiso   1.00
O1599  O     0.54144   0.63392   0.24398   0.00000  Uiso   1.00
O1600  O     0.53590   0.70545   0.12001   0.00000  Uiso   1.00
O1601  O     0.53895   0.63515   0.90692   0.00000  Uiso   1.00
O1602  O     0.53085   0.70295   0.78403   0.00000  Uiso   1.00
O1603  O     0.53978   0.70046   0.53731   0.00000  Uiso   1.00
O1604  O     0.53954   0.70235   0.86924   0.00000  Uiso   1.00
O1605  O     0.54505   0.69310   0.62396   0.00000  Uiso   1.00
O1606  O     0.53029   0.62533   0.66250   0.00000  Uiso   1.00
O1607  O     0.53579   0.63373   0.74781   0.00000  Uiso   1.00
O1608  O     0.53775   0.63449   0.99339   0.00000  Uiso   1.00
O1609  O     0.71362   0.79809   0.86004   0.00000  Uiso   1.00
O1610  O     0.71254   0.80522   0.03085   0.00000  Uiso   1.00
O1611  O     0.71771   0.87509   0.48738   0.00000  Uiso   1.00
O1612  O     0.54624   0.97447   0.48425   0.00000  Uiso   1.00
O1613  O     0.54253   0.97556   0.14800   0.00000  Uiso   1.00
O1614  O     0.71569   0.87334   0.15235   0.00000  Uiso   1.00
O1615  O     0.53898   0.97535   0.23462   0.00000  Uiso   1.00
O1616  O     0.71401   0.87678   0.24112   0.00000  Uiso   1.00
O1617  O     0.54019   0.96470   0.39704   0.00000  Uiso   1.00
O1618  O     0.71461   0.87088   0.40091   0.00000  Uiso   1.00
O1619  O     0.71013   0.80614   0.11823   0.00000  Uiso   1.00
O1620  O     0.71017   0.80228   0.27395   0.00000  Uiso   1.00
O1621  O     0.71079   0.80397   0.36371   0.00000  Uiso   1.00
O1622  O     0.70928   0.80509   0.52899   0.00000  Uiso   1.00
O1623  O     0.54133   0.97178   0.65117   0.00000  Uiso   1.00
O1624  O     0.71667   0.87173   0.65609   0.00000  Uiso   1.00
O1625  O     0.53612   0.96307   0.73678   0.00000  Uiso   1.00
O1626  O     0.71951   0.87461   0.74422   0.00000  Uiso   1.00
O1627  O     0.53978   0.96498   0.89910   0.00000  Uiso   1.00
O1628  O     0.71253   0.86804   0.89723   0.00000  Uiso   1.00
O1629  O     0.54634   0.97723   0.98477   0.00000  Uiso   1.00
O1630  O     0.71697   0.87010   0.98532   0.00000  Uiso   1.00
O1631  O     0.71326   0.80261   0.77258   0.00000  Uiso   1.00
O1632  O     0.71626   0.80289   0.61694   0.00000  Uiso   1.00
O1633  O     0.95969   0.02781   0.36107   0.00000  Uiso   1.00
O1634  O     0.96331   0.03039   0.27315   0.00000  Uiso   1.00
O1635  O     0.78624   0.12505   0.36255   0.00000  Uiso   1.00
O1636  O     0.78910   0.19509   0.48835   0.00000  Uiso   1.00
O1637  O     0.79012   0.12806   0.27435   0.00000  Uiso   1.00
O1638  O     0.79115   0.19149   0.40059   0.00000  Uiso   1.00
O1639  O     0.95570   0.02388   0.02415   0.00000  Uiso   1.00
O1640  O     0.78896   0.13196   0.03120   0.00000  Uiso   1.00
O1641  O     0.96294   0.03026   0.11020   0.00000  Uiso   1.00
O1642  O     0.79028   0.13069   0.11865   0.00000  Uiso   1.00
O1643  O     0.78969   0.19907   0.24550   0.00000  Uiso   1.00
O1644  O     0.78888   0.19682   0.15753   0.00000  Uiso   1.00
O1645  O     0.96303   0.03684   0.85814   0.00000  Uiso   1.00
O1646  O     0.96284   0.03517   0.77203   0.00000  Uiso   1.00
O1647  O     0.78604   0.13299   0.86370   0.00000  Uiso   1.00
O1648  O     0.78527   0.13089   0.77719   0.00000  Uiso   1.00
O1649  O     0.96435   0.03806   0.52209   0.00000  Uiso   1.00
O1650  O     0.78659   0.13168   0.53350   0.00000  Uiso   1.00
O1651  O     0.96370   0.03327   0.61038   0.00000  Uiso   1.00
O1652  O     0.79322   0.14166   0.61806   0.00000  Uiso   1.00
O1653  O     0.78348   0.19858   0.74112   0.00000  Uiso   1.00
O1654  O     0.95791   0.30414   0.39446   0.00000  Uiso   1.00
O1655  O     0.96100   0.29929   0.48056   0.00000  Uiso   1.00
O1656  O     0.96096   0.36353   0.36290   0.00000  Uiso   1.00
O1657  O     0.96112   0.30443   0.23958   0.00000  Uiso   1.00
O1658  O     0.95900   0.30182   0.15070   0.00000  Uiso   1.00
O1659  O     0.96087   0.36369   0.02341   0.00000  Uiso   1.00
O1660  O     0.95167   0.35839   0.11101   0.00000  Uiso   1.00
O1661  O     0.95870   0.36067   0.27465   0.00000  Uiso   1.00
O1662  O     0.95994   0.30742   0.89599   0.00000  Uiso   1.00
O1663  O     0.95970   0.30414   0.98343   0.00000  Uiso   1.00
O1664  O     0.95985   0.36192   0.86069   0.00000  Uiso   1.00
O1665  O     0.95824   0.30475   0.73792   0.00000  Uiso   1.00
O1666  O     0.95120   0.30902   0.65323   0.00000  Uiso   1.00
O1667  O     0.95744   0.36105   0.52302   0.00000  Uiso   1.00
O1668  O     0.96085   0.36712   0.61051   0.00000  Uiso   1.00
O1669  O     0.96193   0.36485   0.77283   0.00000  Uiso   1.00
O1670  O     0.78725   0.20228   0.90439   0.00000  Uiso   1.00
O1671  O     0.78922   0.20078   0.99232   0.00000  Uiso   1.00
O1672  O     0.78354   0.20832   0.65524   0.00000  Uiso   1.00
O1673  O     0.78617   0.46635   0.10830   0.00000  Uiso   1.00
O1674  O     0.78541   0.46868   0.35977   0.00000  Uiso   1.00
O1675  O     0.78852   0.53598   0.15165   0.00000  Uiso   1.00
O1676  O     0.78584   0.46411   0.27444   0.00000  Uiso   1.00
O1677  O     0.79223   0.47326   0.02226   0.00000  Uiso   1.00
O1678  O     0.79001   0.53201   0.40620   0.00000  Uiso   1.00
O1679  O     0.78979   0.53292   0.49429   0.00000  Uiso   1.00
O1680  O     0.79100   0.53268   0.23865   0.00000  Uiso   1.00
O1681  O     0.78457   0.46819   0.61526   0.00000  Uiso   1.00
O1682  O     0.78482   0.46429   0.85729   0.00000  Uiso   1.00
O1683  O     0.78484   0.53690   0.65087   0.00000  Uiso   1.00
O1684  O     0.78658   0.46847   0.52801   0.00000  Uiso   1.00
O1685  O     0.78840   0.53453   0.98421   0.00000  Uiso   1.00
O1686  O     0.79129   0.53201   0.89642   0.00000  Uiso   1.00
O1687  O     0.78827   0.53130   0.73987   0.00000  Uiso   1.00
O1688  O     0.78573   0.46416   0.76940   0.00000  Uiso   1.00
O1689  O     0.96360   0.69761   0.11171   0.00000  Uiso   1.00
O1690  O     0.96383   0.69702   0.36141   0.00000  Uiso   1.00
O1691  O     0.95994   0.69658   0.27395   0.00000  Uiso   1.00
O1692  O     0.96164   0.69909   0.02260   0.00000  Uiso   1.00
O1693  O     0.95758   0.63892   0.39967   0.00000  Uiso   1.00
O1694  O     0.95323   0.64373   0.23425   0.00000  Uiso   1.00
O1695  O     0.96202   0.64093   0.14829   0.00000  Uiso   1.00
O1696  O     0.96238   0.63700   0.48797   0.00000  Uiso   1.00
O1697  O     0.95935   0.64117   0.98034   0.00000  Uiso   1.00
O1698  O     0.96380   0.69897   0.85685   0.00000  Uiso   1.00
O1699  O     0.95853   0.69841   0.60900   0.00000  Uiso   1.00
O1700  O     0.95914   0.69257   0.77097   0.00000  Uiso   1.00
O1701  O     0.96304   0.63950   0.89137   0.00000  Uiso   1.00
O1702  O     0.96547   0.63196   0.73586   0.00000  Uiso   1.00
O1703  O     0.95648   0.63818   0.65040   0.00000  Uiso   1.00
O1704  O     0.95945   0.69816   0.51983   0.00000  Uiso   1.00
O1705  O     0.96571   0.96063   0.14779   0.00000  Uiso   1.00
O1706  O     0.79459   0.86328   0.40440   0.00000  Uiso   1.00
O1707  O     0.79216   0.86221   0.49285   0.00000  Uiso   1.00
O1708  O     0.79503   0.86226   0.15357   0.00000  Uiso   1.00
O1709  O     0.97121   0.96191   0.40134   0.00000  Uiso   1.00
O1710  O     0.79369   0.86321   0.24060   0.00000  Uiso   1.00
O1711  O     0.96841   0.96861   0.48623   0.00000  Uiso   1.00
O1712  O     0.96923   0.96468   0.23349   0.00000  Uiso   1.00
O1713  O     0.79002   0.80531   0.27721   0.00000  Uiso   1.00
O1714  O     0.78988   0.80393   0.36442   0.00000  Uiso   1.00
O1715  O     0.78949   0.80605   0.11399   0.00000  Uiso   1.00
O1716  O     0.78891   0.80132   0.02578   0.00000  Uiso   1.00
O1717  O     0.96838   0.96583   0.64962   0.00000  Uiso   1.00
O1718  O     0.95970   0.96840   0.89253   0.00000  Uiso   1.00
O1719  O     0.96267   0.96224   0.98060   0.00000  Uiso   1.00
O1720  O     0.79541   0.86076   0.64920   0.00000  Uiso   1.00
O1721  O     0.78809   0.86264   0.90186   0.00000  Uiso   1.00
O1722  O     0.79307   0.85830   0.98827   0.00000  Uiso   1.00
O1723  O     0.79614   0.86175   0.73785   0.00000  Uiso   1.00
O1724  O     0.96575   0.96991   0.73496   0.00000  Uiso   1.00
O1725  O     0.79110   0.80339   0.77628   0.00000  Uiso   1.00
O1726  O     0.79053   0.80561   0.61672   0.00000  Uiso   1.00
O1727  O     0.78783   0.80540   0.52763   0.00000  Uiso   1.00
O1728  O     0.79428   0.80595   0.86306   0.00000  Uiso   1.00
O1729  O     0.01147   0.31110   0.32121   0.00000  Uiso   1.00
O1730  O     0.00424   0.31229   0.06868   0.00000  Uiso   1.00
O1731  O     0.00768   0.35118   0.44495   0.00000  Uiso   1.00
O1732  O     0.00679   0.35484   0.19276   0.00000  Uiso   1.00
O1733  O     0.00945   0.35235   0.94193   0.00000  Uiso   1.00
O1734  O     0.00366   0.35429   0.69282   0.00000  Uiso   1.00
O1735  O     0.00743   0.31002   0.81585   0.00000  Uiso   1.00
O1736  O     0.00134   0.31023   0.57217   0.00000  Uiso   1.00
O1737  O     0.00673   0.64362   0.31656   0.00000  Uiso   1.00
O1738  O     0.00376   0.64950   0.06669   0.00000  Uiso   1.00
O1739  O     0.01257   0.68821   0.19216   0.00000  Uiso   1.00
O1740  O     0.01122   0.68696   0.44293   0.00000  Uiso   1.00
O1741  O     0.00978   0.69132   0.93739   0.00000  Uiso   1.00
O1742  O     0.00206   0.68538   0.69161   0.00000  Uiso   1.00
O1743  O     0.00864   0.64513   0.81597   0.00000  Uiso   1.00
O1744  O     0.00426   0.64478   0.56790   0.00000  Uiso   1.00
O1745  O     0.24171   0.81329   0.45111   0.00000  Uiso   1.00
O1746  O     0.24417   0.80837   0.19458   0.00000  Uiso   1.00
O1747  O     0.24200   0.85464   0.07097   0.00000  Uiso   1.00
O1748  O     0.24021   0.85392   0.32140   0.00000  Uiso   1.00
O1749  O     0.24566   0.85447   0.57108   0.00000  Uiso   1.00
O1750  O     0.24694   0.81414   0.69811   0.00000  Uiso   1.00
O1751  O     0.24696   0.81372   0.94570   0.00000  Uiso   1.00
O1752  O     0.26111   0.18565   0.06684   0.00000  Uiso   1.00
O1753  O     0.25391   0.14305   0.19318   0.00000  Uiso   1.00
O1754  O     0.25854   0.14514   0.43833   0.00000  Uiso   1.00
O1755  O     0.49660   0.02204   0.44704   0.00000  Uiso   1.00
O1756  O     0.48608   0.02154   0.19339   0.00000  Uiso   1.00
O1757  O     0.25457   0.18933   0.31438   0.00000  Uiso   1.00
O1758  O     0.25998   0.14745   0.69063   0.00000  Uiso   1.00
O1759  O     0.49222   0.02297   0.94370   0.00000  Uiso   1.00
O1760  O     0.25874   0.14452   0.94155   0.00000  Uiso   1.00
O1761  O     0.49495   0.01926   0.69476   0.00000  Uiso   1.00
O1762  O     0.25750   0.18875   0.56684   0.00000  Uiso   1.00
O1763  O     0.25508   0.18605   0.81668   0.00000  Uiso   1.00
O1764  O     0.49916   0.31139   0.82337   0.00000  Uiso   1.00
O1765  O     0.26187   0.47782   0.45407   0.00000  Uiso   1.00
O1766  O     0.25859   0.51815   0.32717   0.00000  Uiso   1.00
O1767  O     0.26294   0.47604   0.19979   0.00000  Uiso   1.00
O1768  O     0.25994   0.52196   0.07952   0.00000  Uiso   1.00
O1769  O     0.26286   0.52228   0.57881   0.00000  Uiso   1.00
O1770  O     0.25566   0.52256   0.82769   0.00000  Uiso   1.00
O1771  O     0.26177   0.48080   0.70392   0.00000  Uiso   1.00
O1772  O     0.25438   0.48043   0.95384   0.00000  Uiso   1.00
O1773  O     0.49015   0.97857   0.31668   0.00000  Uiso   1.00
O1774  O     0.49437   0.98103   0.06950   0.00000  Uiso   1.00
O1775  O     0.49333   0.97617   0.81794   0.00000  Uiso   1.00
O1776  O     0.49721   0.97616   0.56977   0.00000  Uiso   1.00
O1777  O     0.25551   0.85690   0.82036   0.00000  Uiso   1.00
O1778  O     0.50943   0.31183   0.32389   0.00000  Uiso   1.00
O1779  O     0.50689   0.35338   0.45002   0.00000  Uiso   1.00
O1780  O     0.50968   0.35281   0.19689   0.00000  Uiso   1.00
O1781  O     0.50919   0.31029   0.07152   0.00000  Uiso   1.00
O1782  O     0.50576   0.30945   0.57792   0.00000  Uiso   1.00
O1783  O     0.50407   0.35413   0.94955   0.00000  Uiso   1.00
O1784  O     0.50418   0.35548   0.70057   0.00000  Uiso   1.00
O1785  O     0.50207   0.64340   0.07519   0.00000  Uiso   1.00
O1786  O     0.51115   0.68837   0.45434   0.00000  Uiso   1.00
O1787  O     0.51792   0.64835   0.32828   0.00000  Uiso   1.00
O1788  O     0.50271   0.69017   0.20345   0.00000  Uiso   1.00
O1789  O     0.51200   0.68407   0.70189   0.00000  Uiso   1.00
O1790  O     0.50774   0.68805   0.95242   0.00000  Uiso   1.00
O1791  O     0.51128   0.64592   0.82884   0.00000  Uiso   1.00
O1792  O     0.50914   0.64363   0.57982   0.00000  Uiso   1.00
O1793  O     0.74471   0.85774   0.32359   0.00000  Uiso   1.00
O1794  O     0.74312   0.81355   0.44492   0.00000  Uiso   1.00
O1795  O     0.74647   0.85698   0.07059   0.00000  Uiso   1.00
O1796  O     0.74262   0.81643   0.19662   0.00000  Uiso   1.00
O1797  O     0.74280   0.81767   0.69590   0.00000  Uiso   1.00
O1798  O     0.74874   0.85496   0.81951   0.00000  Uiso   1.00
O1799  O     0.74161   0.81152   0.94436   0.00000  Uiso   1.00
O1800  O     0.74412   0.85412   0.57184   0.00000  Uiso   1.00
O1801  O     0.75744   0.14245   0.19742   0.00000  Uiso   1.00
O1802  O     0.75757   0.14301   0.44795   0.00000  Uiso   1.00
O1803  O     0.76067   0.18500   0.07268   0.00000  Uiso   1.00
O1804  O     0.99299   0.02139   0.44100   0.00000  Uiso   1.00
O1805  O     0.75549   0.18437   0.32597   0.00000  Uiso   1.00
O1806  O     0.99264   0.02297   0.18969   0.00000  Uiso   1.00
O1807  O     0.99755   0.02290   0.68997   0.00000  Uiso   1.00
O1808  O     0.75881   0.18914   0.81830   0.00000  Uiso   1.00
O1809  O     0.75485   0.14584   0.69363   0.00000  Uiso   1.00
O1810  O     0.76312   0.14552   0.94630   0.00000  Uiso   1.00
O1811  O     0.75571   0.19038   0.56972   0.00000  Uiso   1.00
O1812  O     0.99256   0.01938   0.94315   0.00000  Uiso   1.00
O1813  O     0.75771   0.48056   0.19225   0.00000  Uiso   1.00
O1814  O     0.75720   0.48139   0.44540   0.00000  Uiso   1.00
O1815  O     0.75899   0.52270   0.32072   0.00000  Uiso   1.00
O1816  O     0.75311   0.52486   0.06546   0.00000  Uiso   1.00
O1817  O     0.75257   0.47858   0.94179   0.00000  Uiso   1.00
O1818  O     0.75114   0.52490   0.56984   0.00000  Uiso   1.00
O1819  O     0.75215   0.47686   0.69439   0.00000  Uiso   1.00
O1820  O     0.75486   0.52111   0.81599   0.00000  Uiso   1.00
O1821  O     0.99874   0.97964   0.31597   0.00000  Uiso   1.00
O1822  O     0.99303   0.97416   0.06640   0.00000  Uiso   1.00
O1823  O     0.99322   0.97957   0.81326   0.00000  Uiso   1.00
O1824  O     0.99388   0.98111   0.56499   0.00000  Uiso   1.00
