data_final_Br-Al-SABVOH01
_audit_creation_date              2022-12-15
_audit_creation_method            'Materials Studio'
_symmetry_space_group_name_H-M    'P1'
_symmetry_Int_Tables_number       1
_symmetry_cell_setting            triclinic
loop_
_symmetry_equiv_pos_as_xyz
  x,y,z
_cell_length_a                    34.0250
_cell_length_b                    36.7719
_cell_length_c                    26.3275
_cell_angle_alpha                 90.0000
_cell_angle_beta                  90.0000
_cell_angle_gamma                 90.0000
loop_
_atom_site_label
_atom_site_type_symbol
_atom_site_fract_x
_atom_site_fract_y
_atom_site_fract_z
_atom_site_U_iso_or_equiv
_atom_site_adp_type
_atom_site_occupancy
Al1    Al    0.24685   0.16441   0.38275   0.00000  Uiso   1.00
Al2    Al    0.24724   0.16720   0.25691   0.00000  Uiso   1.00
Al3    Al    0.24810   0.16695   0.00627   0.00000  Uiso   1.00
Al4    Al    0.24867   0.17017   0.13147   0.00000  Uiso   1.00
Al5    Al    0.00260   0.00185   0.00103   0.00000  Uiso   1.00
Al6    Al    0.24588   0.16325   0.75498   0.00000  Uiso   1.00
Al7    Al    0.24871   0.17023   0.88126   0.00000  Uiso   1.00
Al8    Al    0.24906   0.16220   0.62879   0.00000  Uiso   1.00
Al9    Al    0.24573   0.16054   0.50436   0.00000  Uiso   1.00
Al10   Al    0.00102   0.33306   0.88073   0.00000  Uiso   1.00
Al11   Al    0.24776   0.50122   0.25870   0.00000  Uiso   1.00
Al12   Al    0.24797   0.50490   0.38376   0.00000  Uiso   1.00
Al13   Al    0.24758   0.49896   0.50688   0.00000  Uiso   1.00
Al14   Al    0.24761   0.50223   0.63040   0.00000  Uiso   1.00
Al15   Al    0.00031   0.66460   0.13259   0.00000  Uiso   1.00
Al16   Al    0.00117   0.66713   0.00450   0.00000  Uiso   1.00
Al17   Al    0.00402   0.67010   0.25511   0.00000  Uiso   1.00
Al18   Al    0.00113   0.66862   0.38188   0.00000  Uiso   1.00
Al19   Al    0.00243   0.66557   0.63286   0.00000  Uiso   1.00
Al20   Al    0.00078   0.66622   0.75852   0.00000  Uiso   1.00
Al21   Al    0.00130   0.66583   0.88109   0.00000  Uiso   1.00
Al22   Al    0.24962   0.83434   0.13392   0.00000  Uiso   1.00
Al23   Al    0.00003   0.99835   0.12546   0.00000  Uiso   1.00
Al24   Al    0.24960   0.82967   0.50564   0.00000  Uiso   1.00
Al25   Al    0.24981   0.83168   0.75494   0.00000  Uiso   1.00
Al26   Al    0.00054   0.99448   0.87529   0.00000  Uiso   1.00
Al27   Al    0.49690   0.00594   0.00699   0.00000  Uiso   1.00
Al28   Al    0.49964   0.00012   0.50866   0.00000  Uiso   1.00
Al29   Al    0.49873   0.00079   0.88189   0.00000  Uiso   1.00
Al30   Al    0.49942   0.00325   0.75824   0.00000  Uiso   1.00
Al31   Al    0.49923   0.33365   0.00374   0.00000  Uiso   1.00
Al32   Al    0.25475   0.50338   0.00711   0.00000  Uiso   1.00
Al33   Al    0.25249   0.50481   0.13334   0.00000  Uiso   1.00
Al34   Al    0.25024   0.49499   0.75579   0.00000  Uiso   1.00
Al35   Al    0.25435   0.50215   0.88175   0.00000  Uiso   1.00
Al36   Al    0.49897   0.66401   0.37776   0.00000  Uiso   1.00
Al37   Al    0.49932   0.66132   0.13015   0.00000  Uiso   1.00
Al38   Al    0.25339   0.83618   0.38080   0.00000  Uiso   1.00
Al39   Al    0.25079   0.83078   0.00763   0.00000  Uiso   1.00
Al40   Al    0.49956   0.99964   0.13151   0.00000  Uiso   1.00
Al41   Al    0.25180   0.83247   0.25715   0.00000  Uiso   1.00
Al42   Al    0.25002   0.83090   0.63011   0.00000  Uiso   1.00
Al43   Al    0.25260   0.83038   0.87828   0.00000  Uiso   1.00
Al44   Al    0.74822   0.16273   0.00705   0.00000  Uiso   1.00
Al45   Al    0.50125   0.00086   0.25631   0.00000  Uiso   1.00
Al46   Al    0.74850   0.16394   0.13031   0.00000  Uiso   1.00
Al47   Al    0.74981   0.16251   0.75449   0.00000  Uiso   1.00
Al48   Al    0.74833   0.16478   0.50793   0.00000  Uiso   1.00
Al49   Al    0.50246   0.33100   0.38180   0.00000  Uiso   1.00
Al50   Al    0.50314   0.33122   0.13199   0.00000  Uiso   1.00
Al51   Al    0.50221   0.33727   0.25543   0.00000  Uiso   1.00
Al52   Al    0.50007   0.33379   0.75537   0.00000  Uiso   1.00
Al53   Al    0.50462   0.33180   0.87997   0.00000  Uiso   1.00
Al54   Al    0.50126   0.33522   0.50554   0.00000  Uiso   1.00
Al55   Al    0.50314   0.32948   0.62996   0.00000  Uiso   1.00
Al56   Al    0.74828   0.50260   0.00585   0.00000  Uiso   1.00
Al57   Al    0.74964   0.50815   0.13059   0.00000  Uiso   1.00
Al58   Al    0.74966   0.50582   0.38037   0.00000  Uiso   1.00
Al59   Al    0.74623   0.50312   0.50683   0.00000  Uiso   1.00
Al60   Al    0.74888   0.50704   0.88043   0.00000  Uiso   1.00
Al61   Al    0.74931   0.50101   0.75751   0.00000  Uiso   1.00
Al62   Al    0.50163   0.67083   0.00485   0.00000  Uiso   1.00
Al63   Al    0.50020   0.67196   0.25609   0.00000  Uiso   1.00
Al64   Al    0.50427   0.66534   0.62816   0.00000  Uiso   1.00
Al65   Al    0.50065   0.66537   0.75414   0.00000  Uiso   1.00
Al66   Al    0.50489   0.66421   0.88097   0.00000  Uiso   1.00
Al67   Al    0.50092   0.66615   0.50204   0.00000  Uiso   1.00
Al68   Al    0.74994   0.83176   0.00449   0.00000  Uiso   1.00
Al69   Al    0.50025   0.99405   0.38291   0.00000  Uiso   1.00
Al70   Al    0.74826   0.83610   0.62686   0.00000  Uiso   1.00
Al71   Al    0.50137   0.99746   0.63528   0.00000  Uiso   1.00
Al72   Al    0.75236   0.16768   0.38095   0.00000  Uiso   1.00
Al73   Al    0.99905   0.00044   0.25270   0.00000  Uiso   1.00
Al74   Al    0.75104   0.16533   0.25629   0.00000  Uiso   1.00
Al75   Al    0.75019   0.16564   0.87868   0.00000  Uiso   1.00
Al76   Al    0.75325   0.16625   0.63068   0.00000  Uiso   1.00
Al77   Al    0.99472   0.00099   0.50059   0.00000  Uiso   1.00
Al78   Al    0.99840   0.33475   0.25659   0.00000  Uiso   1.00
Al79   Al    0.99820   0.33736   0.00494   0.00000  Uiso   1.00
Al80   Al    0.99833   0.33601   0.12846   0.00000  Uiso   1.00
Al81   Al    0.99871   0.33355   0.38240   0.00000  Uiso   1.00
Al82   Al    0.99664   0.33961   0.75513   0.00000  Uiso   1.00
Al83   Al    0.99607   0.33761   0.50623   0.00000  Uiso   1.00
Al84   Al    0.99780   0.33267   0.62937   0.00000  Uiso   1.00
Al85   Al    0.75006   0.50380   0.25415   0.00000  Uiso   1.00
Al86   Al    0.75040   0.50475   0.63103   0.00000  Uiso   1.00
Al87   Al    0.99885   0.66809   0.50803   0.00000  Uiso   1.00
Al88   Al    0.75196   0.83629   0.37725   0.00000  Uiso   1.00
Al89   Al    0.99708   0.99404   0.37838   0.00000  Uiso   1.00
Al90   Al    0.75173   0.83888   0.12651   0.00000  Uiso   1.00
Al91   Al    0.75005   0.82975   0.25273   0.00000  Uiso   1.00
Al92   Al    0.75100   0.83249   0.50291   0.00000  Uiso   1.00
Al93   Al    0.75100   0.83795   0.87842   0.00000  Uiso   1.00
Al94   Al    0.99887   0.99337   0.62360   0.00000  Uiso   1.00
Al95   Al    0.75007   0.83057   0.75429   0.00000  Uiso   1.00
Al96   Al    0.99977   0.99931   0.74796   0.00000  Uiso   1.00
Br97   Br    0.13182   0.18816   0.35105   0.00000  Uiso   1.00
Br98   Br    0.11536   0.02101   0.46163   0.00000  Uiso   1.00
Br99   Br    0.12371   0.00756   0.22168   0.00000  Uiso   1.00
Br100  Br    0.13446   0.18578   0.10103   0.00000  Uiso   1.00
Br101  Br    0.12265   0.01745   0.71872   0.00000  Uiso   1.00
Br102  Br    0.11057   0.03410   0.95868   0.00000  Uiso   1.00
Br103  Br    0.13297   0.19586   0.84091   0.00000  Uiso   1.00
Br104  Br    0.12246   0.18217   0.59503   0.00000  Uiso   1.00
Br105  Br    0.11397   0.35750   0.21670   0.00000  Uiso   1.00
Br106  Br    0.11836   0.35257   0.47214   0.00000  Uiso   1.00
Br107  Br    0.12215   0.35658   0.72105   0.00000  Uiso   1.00
Br108  Br    0.11732   0.36169   0.96553   0.00000  Uiso   1.00
Br109  Br    0.13245   0.52731   0.08673   0.00000  Uiso   1.00
Br110  Br    0.12797   0.51607   0.34902   0.00000  Uiso   1.00
Br111  Br    0.12667   0.51551   0.59740   0.00000  Uiso   1.00
Br112  Br    0.12697   0.51269   0.84941   0.00000  Uiso   1.00
Br113  Br    0.12354   0.68314   0.23181   0.00000  Uiso   1.00
Br114  Br    0.11976   0.68121   0.48174   0.00000  Uiso   1.00
Br115  Br    0.10904   0.69713   0.71594   0.00000  Uiso   1.00
Br116  Br    0.11496   0.68448   0.97286   0.00000  Uiso   1.00
Br117  Br    0.13932   0.86370   0.08901   0.00000  Uiso   1.00
Br118  Br    0.12813   0.84931   0.35189   0.00000  Uiso   1.00
Br119  Br    0.13917   0.85830   0.58716   0.00000  Uiso   1.00
Br120  Br    0.13365   0.85097   0.84567   0.00000  Uiso   1.00
Br121  Br    0.36243   0.13931   0.46836   0.00000  Uiso   1.00
Br122  Br    0.37005   0.14594   0.22692   0.00000  Uiso   1.00
Br123  Br    0.36382   0.14202   0.71758   0.00000  Uiso   1.00
Br124  Br    0.37326   0.15641   0.98312   0.00000  Uiso   1.00
Br125  Br    0.38014   0.31373   0.09517   0.00000  Uiso   1.00
Br126  Br    0.38079   0.31592   0.34815   0.00000  Uiso   1.00
Br127  Br    0.38330   0.30333   0.58955   0.00000  Uiso   1.00
Br128  Br    0.38238   0.31021   0.84255   0.00000  Uiso   1.00
Br129  Br    0.36171   0.47943   0.22383   0.00000  Uiso   1.00
Br130  Br    0.37340   0.48843   0.48485   0.00000  Uiso   1.00
Br131  Br    0.36639   0.47902   0.72544   0.00000  Uiso   1.00
Br132  Br    0.35976   0.46724   0.96968   0.00000  Uiso   1.00
Br133  Br    0.37853   0.65576   0.10268   0.00000  Uiso   1.00
Br134  Br    0.37363   0.65523   0.35016   0.00000  Uiso   1.00
Br135  Br    0.37592   0.64911   0.59031   0.00000  Uiso   1.00
Br136  Br    0.38778   0.64265   0.83482   0.00000  Uiso   1.00
Br137  Br    0.38279   0.98364   0.10308   0.00000  Uiso   1.00
Br138  Br    0.38744   0.96990   0.35204   0.00000  Uiso   1.00
Br139  Br    0.36736   0.81017   0.47227   0.00000  Uiso   1.00
Br140  Br    0.37859   0.82289   0.21988   0.00000  Uiso   1.00
Br141  Br    0.38288   0.97980   0.59423   0.00000  Uiso   1.00
Br142  Br    0.37777   0.97979   0.85181   0.00000  Uiso   1.00
Br143  Br    0.37134   0.81472   0.97129   0.00000  Uiso   1.00
Br144  Br    0.37453   0.81427   0.71712   0.00000  Uiso   1.00
Br145  Br    0.62386   0.02007   0.22332   0.00000  Uiso   1.00
Br146  Br    0.61969   0.01625   0.47270   0.00000  Uiso   1.00
Br147  Br    0.63445   0.18714   0.34416   0.00000  Uiso   1.00
Br148  Br    0.63727   0.18701   0.09473   0.00000  Uiso   1.00
Br149  Br    0.61639   0.02302   0.96933   0.00000  Uiso   1.00
Br150  Br    0.62724   0.18287   0.84594   0.00000  Uiso   1.00
Br151  Br    0.64040   0.19257   0.59084   0.00000  Uiso   1.00
Br152  Br    0.62124   0.01439   0.72662   0.00000  Uiso   1.00
Br153  Br    0.62357   0.35179   0.22910   0.00000  Uiso   1.00
Br154  Br    0.61457   0.35670   0.47164   0.00000  Uiso   1.00
Br155  Br    0.62207   0.35602   0.72527   0.00000  Uiso   1.00
Br156  Br    0.61994   0.35963   0.96825   0.00000  Uiso   1.00
Br157  Br    0.62272   0.51722   0.09431   0.00000  Uiso   1.00
Br158  Br    0.62731   0.52118   0.33488   0.00000  Uiso   1.00
Br159  Br    0.62517   0.51097   0.59786   0.00000  Uiso   1.00
Br160  Br    0.62762   0.52331   0.84530   0.00000  Uiso   1.00
Br161  Br    0.62454   0.67880   0.47739   0.00000  Uiso   1.00
Br162  Br    0.61613   0.68329   0.22836   0.00000  Uiso   1.00
Br163  Br    0.62094   0.68454   0.71818   0.00000  Uiso   1.00
Br164  Br    0.62614   0.68191   0.97762   0.00000  Uiso   1.00
Br165  Br    0.63340   0.85129   0.09399   0.00000  Uiso   1.00
Br166  Br    0.63091   0.85721   0.34041   0.00000  Uiso   1.00
Br167  Br    0.62605   0.85532   0.59451   0.00000  Uiso   1.00
Br168  Br    0.62526   0.85331   0.85026   0.00000  Uiso   1.00
Br169  Br    0.87440   0.14741   0.21822   0.00000  Uiso   1.00
Br170  Br    0.86933   0.14806   0.47193   0.00000  Uiso   1.00
Br171  Br    0.86948   0.14515   0.71670   0.00000  Uiso   1.00
Br172  Br    0.87085   0.15181   0.96982   0.00000  Uiso   1.00
Br173  Br    0.87865   0.31236   0.09164   0.00000  Uiso   1.00
Br174  Br    0.88339   0.30550   0.34606   0.00000  Uiso   1.00
Br175  Br    0.87521   0.31924   0.60126   0.00000  Uiso   1.00
Br176  Br    0.88800   0.30798   0.84079   0.00000  Uiso   1.00
Br177  Br    0.87281   0.48591   0.22609   0.00000  Uiso   1.00
Br178  Br    0.86150   0.47481   0.46835   0.00000  Uiso   1.00
Br179  Br    0.86632   0.48629   0.72230   0.00000  Uiso   1.00
Br180  Br    0.85723   0.47429   0.96327   0.00000  Uiso   1.00
Br181  Br    0.87862   0.65199   0.09559   0.00000  Uiso   1.00
Br182  Br    0.87536   0.65394   0.35088   0.00000  Uiso   1.00
Br183  Br    0.88543   0.64215   0.59280   0.00000  Uiso   1.00
Br184  Br    0.87592   0.65592   0.84781   0.00000  Uiso   1.00
Br185  Br    0.88006   0.97812   0.34046   0.00000  Uiso   1.00
Br186  Br    0.87363   0.81746   0.47865   0.00000  Uiso   1.00
Br187  Br    0.87085   0.81304   0.21270   0.00000  Uiso   1.00
Br188  Br    0.87638   0.98463   0.09461   0.00000  Uiso   1.00
Br189  Br    0.88999   0.97376   0.84554   0.00000  Uiso   1.00
Br190  Br    0.88148   0.97848   0.59710   0.00000  Uiso   1.00
Br191  Br    0.86609   0.80722   0.95996   0.00000  Uiso   1.00
Br192  Br    0.86002   0.80114   0.71181   0.00000  Uiso   1.00
H193   H     0.09671   0.06283   0.14610   0.00000  Uiso   1.00
H194   H     0.15980   0.09278   0.15286   0.00000  Uiso   1.00
H195   H     0.18556   0.06000   0.24697   0.00000  Uiso   1.00
H196   H     0.08918   0.07533   0.37940   0.00000  Uiso   1.00
H197   H     0.14810   0.10340   0.38851   0.00000  Uiso   1.00
H198   H     0.00956   0.03990   0.43034   0.00000  Uiso   1.00
H199   H     0.01763   0.03847   0.18868   0.00000  Uiso   1.00
H200   H     0.18227   0.06343   0.49076   0.00000  Uiso   1.00
H201   H     0.01140   0.04044   0.68468   0.00000  Uiso   1.00
H202   H     0.09048   0.06290   0.63763   0.00000  Uiso   1.00
H203   H     0.15219   0.09593   0.64420   0.00000  Uiso   1.00
H204   H     0.18436   0.06544   0.75014   0.00000  Uiso   1.00
H205   H     0.08113   0.08296   0.88010   0.00000  Uiso   1.00
H206   H     0.14424   0.11424   0.88803   0.00000  Uiso   1.00
H207   H     0.17330   0.08116   0.98917   0.00000  Uiso   1.00
H208   H     0.01302   0.04305   0.93117   0.00000  Uiso   1.00
H209   H     0.09736   0.27702   0.02362   0.00000  Uiso   1.00
H210   H     0.06909   0.23310   0.12540   0.00000  Uiso   1.00
H211   H     0.01162   0.37838   0.44031   0.00000  Uiso   1.00
H212   H     0.02068   0.37881   0.19357   0.00000  Uiso   1.00
H213   H     0.07414   0.24496   0.37227   0.00000  Uiso   1.00
H214   H     0.16633   0.25231   0.26188   0.00000  Uiso   1.00
H215   H     0.10345   0.28143   0.26756   0.00000  Uiso   1.00
H216   H     0.15870   0.24411   0.02251   0.00000  Uiso   1.00
H217   H     0.24931   0.21886   0.06505   0.00000  Uiso   1.00
H218   H     0.10498   0.27700   0.52789   0.00000  Uiso   1.00
H219   H     0.00733   0.29264   0.81953   0.00000  Uiso   1.00
H220   H     0.06509   0.23718   0.62397   0.00000  Uiso   1.00
H221   H     0.01509   0.37834   0.93772   0.00000  Uiso   1.00
H222   H     0.07072   0.24118   0.87231   0.00000  Uiso   1.00
H223   H     0.16749   0.25029   0.75800   0.00000  Uiso   1.00
H224   H     0.10202   0.28146   0.76904   0.00000  Uiso   1.00
H225   H     0.16180   0.24091   0.52429   0.00000  Uiso   1.00
H226   H     0.00991   0.37858   0.68758   0.00000  Uiso   1.00
H227   H     0.24136   0.21441   0.81113   0.00000  Uiso   1.00
H228   H     0.06921   0.57267   0.11715   0.00000  Uiso   1.00
H229   H     0.15085   0.44873   0.14165   0.00000  Uiso   1.00
H230   H     0.15550   0.57034   0.27213   0.00000  Uiso   1.00
H231   H     0.05938   0.56580   0.37263   0.00000  Uiso   1.00
H232   H     0.14853   0.43574   0.40760   0.00000  Uiso   1.00
H233   H     0.16429   0.57936   0.01424   0.00000  Uiso   1.00
H234   H     0.08659   0.40309   0.39765   0.00000  Uiso   1.00
H235   H     0.23233   0.54855   0.32130   0.00000  Uiso   1.00
H236   H     0.08948   0.41643   0.14340   0.00000  Uiso   1.00
H237   H     0.17076   0.41372   0.24665   0.00000  Uiso   1.00
H238   H     0.23351   0.54465   0.07037   0.00000  Uiso   1.00
H239   H     0.23940   0.46043   0.19775   0.00000  Uiso   1.00
H240   H     0.08957   0.59611   0.27840   0.00000  Uiso   1.00
H241   H     0.17794   0.41140   0.49803   0.00000  Uiso   1.00
H242   H     0.06551   0.56075   0.62615   0.00000  Uiso   1.00
H243   H     0.14411   0.44052   0.65421   0.00000  Uiso   1.00
H244   H     0.15484   0.56908   0.51822   0.00000  Uiso   1.00
H245   H     0.06641   0.56174   0.87806   0.00000  Uiso   1.00
H246   H     0.15045   0.44003   0.89724   0.00000  Uiso   1.00
H247   H     0.22849   0.54190   0.56230   0.00000  Uiso   1.00
H248   H     0.24501   0.45089   0.69014   0.00000  Uiso   1.00
H249   H     0.15793   0.57452   0.77195   0.00000  Uiso   1.00
H250   H     0.08758   0.40436   0.64730   0.00000  Uiso   1.00
H251   H     0.18701   0.40059   0.75489   0.00000  Uiso   1.00
H252   H     0.08596   0.41227   0.89112   0.00000  Uiso   1.00
H253   H     0.18268   0.40451   0.99853   0.00000  Uiso   1.00
H254   H     0.09406   0.59860   0.77984   0.00000  Uiso   1.00
H255   H     0.23456   0.54038   0.81593   0.00000  Uiso   1.00
H256   H     0.09350   0.74361   0.14538   0.00000  Uiso   1.00
H257   H     0.15340   0.77713   0.14736   0.00000  Uiso   1.00
H258   H     0.19019   0.73078   0.25751   0.00000  Uiso   1.00
H259   H     0.09365   0.73588   0.39663   0.00000  Uiso   1.00
H260   H     0.15915   0.76672   0.40740   0.00000  Uiso   1.00
H261   H     0.00292   0.71341   0.44538   0.00000  Uiso   1.00
H262   H     0.10401   0.61345   0.01822   0.00000  Uiso   1.00
H263   H     0.18526   0.73074   0.00358   0.00000  Uiso   1.00
H264   H     0.08793   0.75646   0.63985   0.00000  Uiso   1.00
H265   H     0.15173   0.78614   0.64053   0.00000  Uiso   1.00
H266   H     0.17416   0.74408   0.74286   0.00000  Uiso   1.00
H267   H     0.09532   0.73870   0.90057   0.00000  Uiso   1.00
H268   H     0.15806   0.77028   0.89825   0.00000  Uiso   1.00
H269   H     0.18688   0.72960   0.50870   0.00000  Uiso   1.00
H270   H     0.09521   0.60113   0.52645   0.00000  Uiso   1.00
H271   H     0.00144   0.70985   0.69453   0.00000  Uiso   1.00
H272   H     0.07505   0.90435   0.11969   0.00000  Uiso   1.00
H273   H     0.10992   0.95384   0.00869   0.00000  Uiso   1.00
H274   H     0.06870   0.90691   0.37278   0.00000  Uiso   1.00
H275   H     0.15525   0.90299   0.27380   0.00000  Uiso   1.00
H276   H     0.09082   0.93235   0.27564   0.00000  Uiso   1.00
H277   H     0.24921   0.87833   0.07390   0.00000  Uiso   1.00
H278   H     0.17630   0.92112   0.00483   0.00000  Uiso   1.00
H279   H     0.01237   0.95881   0.06079   0.00000  Uiso   1.00
H280   H     0.00489   0.95486   0.31186   0.00000  Uiso   1.00
H281   H     0.07661   0.90755   0.61370   0.00000  Uiso   1.00
H282   H     0.09644   0.94284   0.52340   0.00000  Uiso   1.00
H283   H     0.07423   0.90211   0.86836   0.00000  Uiso   1.00
H284   H     0.16099   0.90416   0.76940   0.00000  Uiso   1.00
H285   H     0.10025   0.93808   0.77120   0.00000  Uiso   1.00
H286   H     0.00132   0.95161   0.80847   0.00000  Uiso   1.00
H287   H     0.16150   0.91272   0.51781   0.00000  Uiso   1.00
H288   H     0.24620   0.87860   0.56908   0.00000  Uiso   1.00
H289   H     0.26304   0.11795   0.44455   0.00000  Uiso   1.00
H290   H     0.42947   0.09384   0.24785   0.00000  Uiso   1.00
H291   H     0.33517   0.09044   0.14309   0.00000  Uiso   1.00
H292   H     0.39655   0.05556   0.14660   0.00000  Uiso   1.00
H293   H     0.33678   0.08201   0.39147   0.00000  Uiso   1.00
H294   H     0.39638   0.04890   0.39473   0.00000  Uiso   1.00
H295   H     0.26247   0.12418   0.19287   0.00000  Uiso   1.00
H296   H     0.43494   0.10341   0.00693   0.00000  Uiso   1.00
H297   H     0.26601   0.12591   0.93888   0.00000  Uiso   1.00
H298   H     0.42793   0.09557   0.74525   0.00000  Uiso   1.00
H299   H     0.33838   0.08706   0.63940   0.00000  Uiso   1.00
H300   H     0.40272   0.06217   0.65461   0.00000  Uiso   1.00
H301   H     0.34258   0.09739   0.89475   0.00000  Uiso   1.00
H302   H     0.40612   0.06613   0.89595   0.00000  Uiso   1.00
H303   H     0.25893   0.11562   0.69218   0.00000  Uiso   1.00
H304   H     0.43353   0.09689   0.50135   0.00000  Uiso   1.00
H305   H     0.39680   0.38854   0.39271   0.00000  Uiso   1.00
H306   H     0.32075   0.25845   0.12255   0.00000  Uiso   1.00
H307   H     0.41456   0.26034   0.26811   0.00000  Uiso   1.00
H308   H     0.32049   0.25972   0.38000   0.00000  Uiso   1.00
H309   H     0.40972   0.25753   0.01961   0.00000  Uiso   1.00
H310   H     0.34704   0.22827   0.02223   0.00000  Uiso   1.00
H311   H     0.35338   0.22228   0.26822   0.00000  Uiso   1.00
H312   H     0.48235   0.37490   0.43926   0.00000  Uiso   1.00
H313   H     0.40201   0.39181   0.15577   0.00000  Uiso   1.00
H314   H     0.49402   0.28680   0.06676   0.00000  Uiso   1.00
H315   H     0.48429   0.29339   0.31306   0.00000  Uiso   1.00
H316   H     0.25722   0.20926   0.32243   0.00000  Uiso   1.00
H317   H     0.35753   0.21182   0.51761   0.00000  Uiso   1.00
H318   H     0.32219   0.25406   0.62003   0.00000  Uiso   1.00
H319   H     0.40908   0.25648   0.77079   0.00000  Uiso   1.00
H320   H     0.35217   0.21861   0.77128   0.00000  Uiso   1.00
H321   H     0.39160   0.37697   0.64140   0.00000  Uiso   1.00
H322   H     0.31665   0.26680   0.87199   0.00000  Uiso   1.00
H323   H     0.39805   0.38449   0.89786   0.00000  Uiso   1.00
H324   H     0.49826   0.28451   0.82147   0.00000  Uiso   1.00
H325   H     0.42043   0.24634   0.51226   0.00000  Uiso   1.00
H326   H     0.48968   0.28591   0.56641   0.00000  Uiso   1.00
H327   H     0.48769   0.37948   0.93994   0.00000  Uiso   1.00
H328   H     0.25297   0.20465   0.56685   0.00000  Uiso   1.00
H329   H     0.31970   0.59849   0.12441   0.00000  Uiso   1.00
H330   H     0.42512   0.43005   0.24803   0.00000  Uiso   1.00
H331   H     0.33503   0.41696   0.39525   0.00000  Uiso   1.00
H332   H     0.34083   0.42321   0.15380   0.00000  Uiso   1.00
H333   H     0.35087   0.55944   0.27637   0.00000  Uiso   1.00
H334   H     0.34360   0.57421   0.02514   0.00000  Uiso   1.00
H335   H     0.25395   0.45288   0.44506   0.00000  Uiso   1.00
H336   H     0.40979   0.59249   0.27021   0.00000  Uiso   1.00
H337   H     0.34977   0.56194   0.52380   0.00000  Uiso   1.00
H338   H     0.32973   0.41321   0.63643   0.00000  Uiso   1.00
H339   H     0.43770   0.43404   0.75730   0.00000  Uiso   1.00
H340   H     0.43421   0.43561   0.50912   0.00000  Uiso   1.00
H341   H     0.33504   0.41836   0.89064   0.00000  Uiso   1.00
H342   H     0.35460   0.55450   0.76570   0.00000  Uiso   1.00
H343   H     0.26185   0.45556   0.94482   0.00000  Uiso   1.00
H344   H     0.31411   0.59810   0.62455   0.00000  Uiso   1.00
H345   H     0.41956   0.41730   0.99782   0.00000  Uiso   1.00
H346   H     0.41113   0.59219   0.51826   0.00000  Uiso   1.00
H347   H     0.41160   0.58952   0.75862   0.00000  Uiso   1.00
H348   H     0.32266   0.59742   0.86629   0.00000  Uiso   1.00
H349   H     0.43377   0.76803   0.24771   0.00000  Uiso   1.00
H350   H     0.34959   0.76813   0.15418   0.00000  Uiso   1.00
H351   H     0.40367   0.72648   0.14974   0.00000  Uiso   1.00
H352   H     0.34301   0.76255   0.39045   0.00000  Uiso   1.00
H353   H     0.40659   0.73198   0.39946   0.00000  Uiso   1.00
H354   H     0.28005   0.79704   0.44141   0.00000  Uiso   1.00
H355   H     0.31504   0.60464   0.37721   0.00000  Uiso   1.00
H356   H     0.48456   0.62203   0.31222   0.00000  Uiso   1.00
H357   H     0.40586   0.61165   0.01872   0.00000  Uiso   1.00
H358   H     0.47803   0.62286   0.06159   0.00000  Uiso   1.00
H359   H     0.26150   0.78598   0.19445   0.00000  Uiso   1.00
H360   H     0.48557   0.70947   0.18890   0.00000  Uiso   1.00
H361   H     0.48213   0.62715   0.81841   0.00000  Uiso   1.00
H362   H     0.44019   0.76810   0.75273   0.00000  Uiso   1.00
H363   H     0.34299   0.75560   0.64043   0.00000  Uiso   1.00
H364   H     0.39993   0.72147   0.64493   0.00000  Uiso   1.00
H365   H     0.34044   0.75824   0.88635   0.00000  Uiso   1.00
H366   H     0.39927   0.71990   0.89137   0.00000  Uiso   1.00
H367   H     0.27279   0.79208   0.94306   0.00000  Uiso   1.00
H368   H     0.42903   0.76420   0.99787   0.00000  Uiso   1.00
H369   H     0.48335   0.62300   0.57083   0.00000  Uiso   1.00
H370   H     0.26494   0.78827   0.69452   0.00000  Uiso   1.00
H371   H     0.43544   0.76877   0.50132   0.00000  Uiso   1.00
H372   H     0.35101   0.88902   0.02580   0.00000  Uiso   1.00
H373   H     0.32918   0.92513   0.11968   0.00000  Uiso   1.00
H374   H     0.41452   0.92242   0.27011   0.00000  Uiso   1.00
H375   H     0.35330   0.88914   0.27528   0.00000  Uiso   1.00
H376   H     0.32673   0.92079   0.37550   0.00000  Uiso   1.00
H377   H     0.41390   0.91913   0.01939   0.00000  Uiso   1.00
H378   H     0.49414   0.95087   0.31643   0.00000  Uiso   1.00
H379   H     0.49109   0.95415   0.06217   0.00000  Uiso   1.00
H380   H     0.25602   0.87919   0.31951   0.00000  Uiso   1.00
H381   H     0.34621   0.88988   0.53092   0.00000  Uiso   1.00
H382   H     0.41251   0.91411   0.52434   0.00000  Uiso   1.00
H383   H     0.32071   0.92626   0.62143   0.00000  Uiso   1.00
H384   H     0.41375   0.92376   0.76832   0.00000  Uiso   1.00
H385   H     0.34772   0.89387   0.77535   0.00000  Uiso   1.00
H386   H     0.31605   0.93504   0.88138   0.00000  Uiso   1.00
H387   H     0.49367   0.95282   0.81922   0.00000  Uiso   1.00
H388   H     0.25576   0.87633   0.82365   0.00000  Uiso   1.00
H389   H     0.48614   0.95340   0.57093   0.00000  Uiso   1.00
H390   H     0.59254   0.07159   0.14565   0.00000  Uiso   1.00
H391   H     0.65167   0.10256   0.15029   0.00000  Uiso   1.00
H392   H     0.68405   0.06770   0.25276   0.00000  Uiso   1.00
H393   H     0.59004   0.07945   0.39439   0.00000  Uiso   1.00
H394   H     0.65173   0.10953   0.39779   0.00000  Uiso   1.00
H395   H     0.50900   0.04329   0.44043   0.00000  Uiso   1.00
H396   H     0.51687   0.04775   0.19479   0.00000  Uiso   1.00
H397   H     0.52041   0.04137   0.94519   0.00000  Uiso   1.00
H398   H     0.59417   0.06842   0.64892   0.00000  Uiso   1.00
H399   H     0.65430   0.10484   0.64716   0.00000  Uiso   1.00
H400   H     0.68955   0.05892   0.75453   0.00000  Uiso   1.00
H401   H     0.59452   0.07407   0.89514   0.00000  Uiso   1.00
H402   H     0.66277   0.10205   0.90213   0.00000  Uiso   1.00
H403   H     0.52051   0.04414   0.69728   0.00000  Uiso   1.00
H404   H     0.68433   0.06620   0.50024   0.00000  Uiso   1.00
H405   H     0.68491   0.06474   0.99891   0.00000  Uiso   1.00
H406   H     0.60005   0.27439   0.02351   0.00000  Uiso   1.00
H407   H     0.56774   0.23252   0.12580   0.00000  Uiso   1.00
H408   H     0.66228   0.24163   0.01418   0.00000  Uiso   1.00
H409   H     0.57766   0.23664   0.36964   0.00000  Uiso   1.00
H410   H     0.66222   0.23925   0.26875   0.00000  Uiso   1.00
H411   H     0.60209   0.27974   0.26794   0.00000  Uiso   1.00
H412   H     0.50253   0.38109   0.19165   0.00000  Uiso   1.00
H413   H     0.60250   0.27702   0.52131   0.00000  Uiso   1.00
H414   H     0.57397   0.23462   0.62476   0.00000  Uiso   1.00
H415   H     0.56439   0.22878   0.87787   0.00000  Uiso   1.00
H416   H     0.66680   0.24918   0.76804   0.00000  Uiso   1.00
H417   H     0.60333   0.27235   0.77570   0.00000  Uiso   1.00
H418   H     0.66709   0.24670   0.51595   0.00000  Uiso   1.00
H419   H     0.74943   0.21075   0.56578   0.00000  Uiso   1.00
H420   H     0.74473   0.21090   0.81825   0.00000  Uiso   1.00
H421   H     0.50340   0.37856   0.68911   0.00000  Uiso   1.00
H422   H     0.56520   0.57110   0.12671   0.00000  Uiso   1.00
H423   H     0.64961   0.44121   0.14702   0.00000  Uiso   1.00
H424   H     0.73333   0.54856   0.31695   0.00000  Uiso   1.00
H425   H     0.56545   0.56641   0.36474   0.00000  Uiso   1.00
H426   H     0.64722   0.45208   0.39244   0.00000  Uiso   1.00
H427   H     0.65923   0.57424   0.02008   0.00000  Uiso   1.00
H428   H     0.73202   0.54894   0.06921   0.00000  Uiso   1.00
H429   H     0.59041   0.41689   0.39280   0.00000  Uiso   1.00
H430   H     0.66117   0.57966   0.26850   0.00000  Uiso   1.00
H431   H     0.58695   0.40644   0.14524   0.00000  Uiso   1.00
H432   H     0.68426   0.40131   0.25091   0.00000  Uiso   1.00
H433   H     0.74548   0.45959   0.44515   0.00000  Uiso   1.00
H434   H     0.68062   0.40221   0.49672   0.00000  Uiso   1.00
H435   H     0.56305   0.56262   0.62551   0.00000  Uiso   1.00
H436   H     0.65824   0.43425   0.65334   0.00000  Uiso   1.00
H437   H     0.65130   0.56383   0.51614   0.00000  Uiso   1.00
H438   H     0.55812   0.55745   0.88116   0.00000  Uiso   1.00
H439   H     0.64550   0.44860   0.89816   0.00000  Uiso   1.00
H440   H     0.68065   0.40602   0.75339   0.00000  Uiso   1.00
H441   H     0.59122   0.40870   0.64641   0.00000  Uiso   1.00
H442   H     0.73149   0.54662   0.81713   0.00000  Uiso   1.00
H443   H     0.57990   0.42157   0.88521   0.00000  Uiso   1.00
H444   H     0.65824   0.56715   0.76492   0.00000  Uiso   1.00
H445   H     0.73102   0.54685   0.56975   0.00000  Uiso   1.00
H446   H     0.66804   0.41876   0.98919   0.00000  Uiso   1.00
H447   H     0.59561   0.59789   0.77295   0.00000  Uiso   1.00
H448   H     0.59391   0.73712   0.15110   0.00000  Uiso   1.00
H449   H     0.68398   0.73070   0.25169   0.00000  Uiso   1.00
H450   H     0.58908   0.74734   0.39377   0.00000  Uiso   1.00
H451   H     0.65251   0.77710   0.40085   0.00000  Uiso   1.00
H452   H     0.65351   0.77306   0.15458   0.00000  Uiso   1.00
H453   H     0.68135   0.74022   0.49410   0.00000  Uiso   1.00
H454   H     0.59151   0.60508   0.02475   0.00000  Uiso   1.00
H455   H     0.59558   0.60591   0.27660   0.00000  Uiso   1.00
H456   H     0.74737   0.78922   0.18819   0.00000  Uiso   1.00
H457   H     0.50221   0.70846   0.43929   0.00000  Uiso   1.00
H458   H     0.68364   0.73491   0.00431   0.00000  Uiso   1.00
H459   H     0.58090   0.74575   0.63512   0.00000  Uiso   1.00
H460   H     0.64285   0.77920   0.64351   0.00000  Uiso   1.00
H461   H     0.67912   0.73597   0.74958   0.00000  Uiso   1.00
H462   H     0.59088   0.73911   0.89601   0.00000  Uiso   1.00
H463   H     0.50737   0.71032   0.93850   0.00000  Uiso   1.00
H464   H     0.50121   0.71117   0.69153   0.00000  Uiso   1.00
H465   H     0.64416   0.78003   0.89372   0.00000  Uiso   1.00
H466   H     0.74068   0.78926   0.68853   0.00000  Uiso   1.00
H467   H     0.59675   0.60145   0.51788   0.00000  Uiso   1.00
H468   H     0.57017   0.90255   0.11927   0.00000  Uiso   1.00
H469   H     0.60400   0.94781   0.02322   0.00000  Uiso   1.00
H470   H     0.56979   0.90813   0.37184   0.00000  Uiso   1.00
H471   H     0.66213   0.90441   0.26497   0.00000  Uiso   1.00
H472   H     0.60374   0.94300   0.26877   0.00000  Uiso   1.00
H473   H     0.66027   0.91272   0.02005   0.00000  Uiso   1.00
H474   H     0.73631   0.88108   0.05957   0.00000  Uiso   1.00
H475   H     0.72024   0.86860   0.31324   0.00000  Uiso   1.00
H476   H     0.56405   0.89496   0.62860   0.00000  Uiso   1.00
H477   H     0.59614   0.93443   0.52564   0.00000  Uiso   1.00
H478   H     0.57028   0.91151   0.86930   0.00000  Uiso   1.00
H479   H     0.66144   0.90532   0.76857   0.00000  Uiso   1.00
H480   H     0.60028   0.93897   0.77147   0.00000  Uiso   1.00
H481   H     0.72836   0.87444   0.81199   0.00000  Uiso   1.00
H482   H     0.74177   0.87973   0.56004   0.00000  Uiso   1.00
H483   H     0.65925   0.90394   0.51974   0.00000  Uiso   1.00
H484   H     0.76207   0.11992   0.44103   0.00000  Uiso   1.00
H485   H     0.92682   0.08957   0.23963   0.00000  Uiso   1.00
H486   H     0.84198   0.08995   0.13771   0.00000  Uiso   1.00
H487   H     0.90771   0.06744   0.14464   0.00000  Uiso   1.00
H488   H     0.84095   0.09532   0.39152   0.00000  Uiso   1.00
H489   H     0.90345   0.06048   0.39471   0.00000  Uiso   1.00
H490   H     0.77215   0.12287   0.19248   0.00000  Uiso   1.00
H491   H     0.93320   0.09914   0.74544   0.00000  Uiso   1.00
H492   H     0.83674   0.08889   0.64285   0.00000  Uiso   1.00
H493   H     0.90123   0.05560   0.64571   0.00000  Uiso   1.00
H494   H     0.84843   0.09254   0.89384   0.00000  Uiso   1.00
H495   H     0.90577   0.05826   0.89312   0.00000  Uiso   1.00
H496   H     0.76633   0.11752   0.69252   0.00000  Uiso   1.00
H497   H     0.76369   0.12195   0.94480   0.00000  Uiso   1.00
H498   H     0.93052   0.09902   0.98953   0.00000  Uiso   1.00
H499   H     0.93417   0.10106   0.50222   0.00000  Uiso   1.00
H500   H     0.84768   0.22658   0.02281   0.00000  Uiso   1.00
H501   H     0.82239   0.25518   0.11432   0.00000  Uiso   1.00
H502   H     0.91293   0.25077   0.26365   0.00000  Uiso   1.00
H503   H     0.84820   0.22296   0.26839   0.00000  Uiso   1.00
H504   H     0.90711   0.25809   0.01790   0.00000  Uiso   1.00
H505   H     0.82019   0.26320   0.38235   0.00000  Uiso   1.00
H506   H     0.75257   0.21593   0.31391   0.00000  Uiso   1.00
H507   H     0.90266   0.39918   0.14927   0.00000  Uiso   1.00
H508   H     0.89065   0.38172   0.39057   0.00000  Uiso   1.00
H509   H     0.75842   0.20464   0.07205   0.00000  Uiso   1.00
H510   H     0.99292   0.28588   0.31327   0.00000  Uiso   1.00
H511   H     0.99529   0.28927   0.06300   0.00000  Uiso   1.00
H512   H     0.81665   0.26175   0.62903   0.00000  Uiso   1.00
H513   H     0.91917   0.25437   0.76414   0.00000  Uiso   1.00
H514   H     0.85145   0.22006   0.53002   0.00000  Uiso   1.00
H515   H     0.82369   0.25817   0.86693   0.00000  Uiso   1.00
H516   H     0.85908   0.21756   0.76591   0.00000  Uiso   1.00
H517   H     0.91105   0.25222   0.52287   0.00000  Uiso   1.00
H518   H     0.99745   0.29003   0.56796   0.00000  Uiso   1.00
H519   H     0.89926   0.39464   0.89986   0.00000  Uiso   1.00
H520   H     0.93110   0.43389   0.25551   0.00000  Uiso   1.00
H521   H     0.83558   0.57337   0.27635   0.00000  Uiso   1.00
H522   H     0.75223   0.46009   0.18791   0.00000  Uiso   1.00
H523   H     0.92838   0.43452   0.49982   0.00000  Uiso   1.00
H524   H     0.83982   0.43346   0.14745   0.00000  Uiso   1.00
H525   H     0.85185   0.55524   0.01927   0.00000  Uiso   1.00
H526   H     0.91410   0.58635   0.00934   0.00000  Uiso   1.00
H527   H     0.83170   0.42201   0.38985   0.00000  Uiso   1.00
H528   H     0.93491   0.43950   0.75321   0.00000  Uiso   1.00
H529   H     0.75057   0.45665   0.69413   0.00000  Uiso   1.00
H530   H     0.92468   0.42790   0.99698   0.00000  Uiso   1.00
H531   H     0.90351   0.40161   0.65202   0.00000  Uiso   1.00
H532   H     0.84895   0.56224   0.77266   0.00000  Uiso   1.00
H533   H     0.83301   0.42360   0.89180   0.00000  Uiso   1.00
H534   H     0.84801   0.56321   0.52434   0.00000  Uiso   1.00
H535   H     0.83904   0.42935   0.64772   0.00000  Uiso   1.00
H536   H     0.91244   0.58890   0.51656   0.00000  Uiso   1.00
H537   H     0.75227   0.45985   0.94200   0.00000  Uiso   1.00
H538   H     0.99927   0.71115   0.18933   0.00000  Uiso   1.00
H539   H     0.98524   0.62519   0.32087   0.00000  Uiso   1.00
H540   H     0.93753   0.77076   0.24205   0.00000  Uiso   1.00
H541   H     0.83929   0.75839   0.14064   0.00000  Uiso   1.00
H542   H     0.89928   0.72671   0.14366   0.00000  Uiso   1.00
H543   H     0.98110   0.62678   0.07083   0.00000  Uiso   1.00
H544   H     0.84399   0.76026   0.38822   0.00000  Uiso   1.00
H545   H     0.90754   0.72891   0.39246   0.00000  Uiso   1.00
H546   H     0.81833   0.60236   0.11933   0.00000  Uiso   1.00
H547   H     0.76591   0.78812   0.43516   0.00000  Uiso   1.00
H548   H     0.81482   0.60513   0.38094   0.00000  Uiso   1.00
H549   H     0.90508   0.60328   0.27387   0.00000  Uiso   1.00
H550   H     0.92510   0.76057   0.74105   0.00000  Uiso   1.00
H551   H     0.83407   0.74515   0.63840   0.00000  Uiso   1.00
H552   H     0.90022   0.72212   0.64708   0.00000  Uiso   1.00
H553   H     0.83535   0.75426   0.89446   0.00000  Uiso   1.00
H554   H     0.90212   0.72823   0.89847   0.00000  Uiso   1.00
H555   H     0.98457   0.62111   0.82462   0.00000  Uiso   1.00
H556   H     0.98831   0.62245   0.57173   0.00000  Uiso   1.00
H557   H     0.93328   0.76701   0.50417   0.00000  Uiso   1.00
H558   H     0.93014   0.76426   0.99286   0.00000  Uiso   1.00
H559   H     0.75643   0.78874   0.93892   0.00000  Uiso   1.00
H560   H     0.81250   0.61045   0.87935   0.00000  Uiso   1.00
H561   H     0.99528   0.71189   0.94042   0.00000  Uiso   1.00
H562   H     0.82087   0.60113   0.61866   0.00000  Uiso   1.00
H563   H     0.90505   0.60383   0.77428   0.00000  Uiso   1.00
H564   H     0.91185   0.92526   0.02373   0.00000  Uiso   1.00
H565   H     0.81256   0.94292   0.13257   0.00000  Uiso   1.00
H566   H     0.91634   0.91702   0.25827   0.00000  Uiso   1.00
H567   H     0.85296   0.88012   0.25943   0.00000  Uiso   1.00
H568   H     0.82079   0.92687   0.36318   0.00000  Uiso   1.00
H569   H     0.85448   0.88705   0.02273   0.00000  Uiso   1.00
H570   H     0.90775   0.92444   0.51437   0.00000  Uiso   1.00
H571   H     0.84120   0.89774   0.52199   0.00000  Uiso   1.00
H572   H     0.81712   0.93485   0.62292   0.00000  Uiso   1.00
H573   H     0.91869   0.91216   0.75535   0.00000  Uiso   1.00
H574   H     0.85204   0.88008   0.76241   0.00000  Uiso   1.00
H575   H     0.82442   0.92971   0.87780   0.00000  Uiso   1.00
H576   H     0.99717   0.95139   0.55982   0.00000  Uiso   1.00
C577   C     0.11691   0.06338   0.11386   0.00000  Uiso   1.00
C578   C     0.15381   0.08207   0.11620   0.00000  Uiso   1.00
C579   C     0.12612   0.05385   0.02401   0.00000  Uiso   1.00
C580   C     0.15976   0.07469   0.02581   0.00000  Uiso   1.00
C581   C     0.06252   0.03221   0.06681   0.00000  Uiso   1.00
C582   C     0.10213   0.04962   0.06793   0.00000  Uiso   1.00
C583   C     0.20677   0.11642   0.07170   0.00000  Uiso   1.00
C584   C     0.17546   0.08797   0.07084   0.00000  Uiso   1.00
C585   C     0.11090   0.06982   0.35130   0.00000  Uiso   1.00
C586   C     0.14575   0.08758   0.35594   0.00000  Uiso   1.00
C587   C     0.13029   0.03895   0.27534   0.00000  Uiso   1.00
C588   C     0.16461   0.06159   0.27563   0.00000  Uiso   1.00
C589   C     0.06110   0.02721   0.31550   0.00000  Uiso   1.00
C590   C     0.10011   0.04523   0.31390   0.00000  Uiso   1.00
C591   C     0.20452   0.11324   0.31750   0.00000  Uiso   1.00
C592   C     0.17189   0.08563   0.31611   0.00000  Uiso   1.00
C593   C     0.11091   0.06299   0.60655   0.00000  Uiso   1.00
C594   C     0.14611   0.08179   0.61008   0.00000  Uiso   1.00
C595   C     0.12579   0.04759   0.52131   0.00000  Uiso   1.00
C596   C     0.16094   0.06681   0.52218   0.00000  Uiso   1.00
C597   C     0.06005   0.02696   0.56107   0.00000  Uiso   1.00
C598   C     0.09977   0.04543   0.56193   0.00000  Uiso   1.00
C599   C     0.20459   0.10884   0.56937   0.00000  Uiso   1.00
C600   C     0.17157   0.08304   0.56805   0.00000  Uiso   1.00
C601   C     0.10391   0.07812   0.85291   0.00000  Uiso   1.00
C602   C     0.13941   0.09591   0.85829   0.00000  Uiso   1.00
C603   C     0.12751   0.05086   0.77623   0.00000  Uiso   1.00
C604   C     0.16375   0.06855   0.78152   0.00000  Uiso   1.00
C605   C     0.06044   0.03250   0.81118   0.00000  Uiso   1.00
C606   C     0.09705   0.05553   0.81165   0.00000  Uiso   1.00
C607   C     0.20275   0.11535   0.82188   0.00000  Uiso   1.00
C608   C     0.16900   0.09188   0.82241   0.00000  Uiso   1.00
C609   C     0.18830   0.19960   0.69007   0.00000  Uiso   1.00
C610   C     0.12071   0.38725   0.27882   0.00000  Uiso   1.00
C611   C     0.12542   0.21868   0.15523   0.00000  Uiso   1.00
C612   C     0.14355   0.24105   0.48944   0.00000  Uiso   1.00
C613   C     0.19053   0.20185   0.44408   0.00000  Uiso   1.00
C614   C     0.05991   0.36597   0.32097   0.00000  Uiso   1.00
C615   C     0.09881   0.39050   0.06842   0.00000  Uiso   1.00
C616   C     0.08962   0.23604   0.15579   0.00000  Uiso   1.00
C617   C     0.15397   0.22530   0.19342   0.00000  Uiso   1.00
C618   C     0.04755   0.28481   0.19285   0.00000  Uiso   1.00
C619   C     0.08191   0.25963   0.19528   0.00000  Uiso   1.00
C620   C     0.14519   0.24933   0.23164   0.00000  Uiso   1.00
C621   C     0.10836   0.26405   0.23497   0.00000  Uiso   1.00
C622   C     0.05978   0.37153   0.06711   0.00000  Uiso   1.00
C623   C     0.12515   0.39161   0.02606   0.00000  Uiso   1.00
C624   C     0.12733   0.22390   0.40486   0.00000  Uiso   1.00
C625   C     0.09336   0.24531   0.40496   0.00000  Uiso   1.00
C626   C     0.15396   0.22308   0.44597   0.00000  Uiso   1.00
C627   C     0.04812   0.28939   0.45090   0.00000  Uiso   1.00
C628   C     0.08352   0.26408   0.44985   0.00000  Uiso   1.00
C629   C     0.09758   0.38520   0.32191   0.00000  Uiso   1.00
C630   C     0.10974   0.26188   0.49059   0.00000  Uiso   1.00
C631   C     0.19065   0.20530   0.19279   0.00000  Uiso   1.00
C632   C     0.18994   0.20652   0.94341   0.00000  Uiso   1.00
C633   C     0.12772   0.38475   0.77959   0.00000  Uiso   1.00
C634   C     0.12511   0.38507   0.52846   0.00000  Uiso   1.00
C635   C     0.06142   0.36790   0.81484   0.00000  Uiso   1.00
C636   C     0.12032   0.21760   0.65119   0.00000  Uiso   1.00
C637   C     0.08631   0.23984   0.65428   0.00000  Uiso   1.00
C638   C     0.14999   0.22087   0.68973   0.00000  Uiso   1.00
C639   C     0.04831   0.28935   0.69715   0.00000  Uiso   1.00
C640   C     0.08168   0.26188   0.69709   0.00000  Uiso   1.00
C641   C     0.14284   0.24544   0.73000   0.00000  Uiso   1.00
C642   C     0.10839   0.26370   0.73560   0.00000  Uiso   1.00
C643   C     0.05852   0.36580   0.56806   0.00000  Uiso   1.00
C644   C     0.14166   0.24496   0.98887   0.00000  Uiso   1.00
C645   C     0.12627   0.22479   0.90007   0.00000  Uiso   1.00
C646   C     0.09117   0.24304   0.90386   0.00000  Uiso   1.00
C647   C     0.09879   0.38724   0.81828   0.00000  Uiso   1.00
C648   C     0.15210   0.22577   0.94335   0.00000  Uiso   1.00
C649   C     0.04568   0.28687   0.94685   0.00000  Uiso   1.00
C650   C     0.08054   0.26249   0.94750   0.00000  Uiso   1.00
C651   C     0.10581   0.26334   0.98926   0.00000  Uiso   1.00
C652   C     0.09694   0.38554   0.56829   0.00000  Uiso   1.00
C653   C     0.10019   0.58679   0.48821   0.00000  Uiso   1.00
C654   C     0.15369   0.41036   0.28026   0.00000  Uiso   1.00
C655   C     0.13495   0.56845   0.48641   0.00000  Uiso   1.00
C656   C     0.09804   0.58509   0.24231   0.00000  Uiso   1.00
C657   C     0.12368   0.55410   0.15001   0.00000  Uiso   1.00
C658   C     0.08828   0.57277   0.15417   0.00000  Uiso   1.00
C659   C     0.14362   0.43191   0.11173   0.00000  Uiso   1.00
C660   C     0.18829   0.53595   0.19207   0.00000  Uiso   1.00
C661   C     0.14933   0.55403   0.19327   0.00000  Uiso   1.00
C662   C     0.07307   0.58638   0.20049   0.00000  Uiso   1.00
C663   C     0.07319   0.58894   0.44709   0.00000  Uiso   1.00
C664   C     0.20389   0.45631   0.06679   0.00000  Uiso   1.00
C665   C     0.17010   0.43082   0.06839   0.00000  Uiso   1.00
C666   C     0.11669   0.54793   0.40212   0.00000  Uiso   1.00
C667   C     0.08091   0.56738   0.40371   0.00000  Uiso   1.00
C668   C     0.14261   0.42239   0.36931   0.00000  Uiso   1.00
C669   C     0.18387   0.53254   0.44099   0.00000  Uiso   1.00
C670   C     0.14473   0.55018   0.44099   0.00000  Uiso   1.00
C671   C     0.13500   0.57001   0.23868   0.00000  Uiso   1.00
C672   C     0.19690   0.45527   0.32580   0.00000  Uiso   1.00
C673   C     0.16449   0.42932   0.32455   0.00000  Uiso   1.00
C674   C     0.10691   0.40307   0.36685   0.00000  Uiso   1.00
C675   C     0.10892   0.41268   0.11193   0.00000  Uiso   1.00
C676   C     0.16134   0.40962   0.02813   0.00000  Uiso   1.00
C677   C     0.14394   0.57437   0.98409   0.00000  Uiso   1.00
C678   C     0.17083   0.42431   0.82591   0.00000  Uiso   1.00
C679   C     0.10150   0.58586   0.74497   0.00000  Uiso   1.00
C680   C     0.15858   0.40704   0.53007   0.00000  Uiso   1.00
C681   C     0.16345   0.40212   0.78322   0.00000  Uiso   1.00
C682   C     0.11992   0.54633   0.65741   0.00000  Uiso   1.00
C683   C     0.08423   0.56363   0.66029   0.00000  Uiso   1.00
C684   C     0.13999   0.42646   0.61721   0.00000  Uiso   1.00
C685   C     0.18555   0.52918   0.69682   0.00000  Uiso   1.00
C686   C     0.14658   0.54731   0.69869   0.00000  Uiso   1.00
C687   C     0.07486   0.58549   0.70208   0.00000  Uiso   1.00
C688   C     0.13749   0.56837   0.74039   0.00000  Uiso   1.00
C689   C     0.19723   0.45546   0.57385   0.00000  Uiso   1.00
C690   C     0.16560   0.42900   0.57434   0.00000  Uiso   1.00
C691   C     0.12222   0.54628   0.90459   0.00000  Uiso   1.00
C692   C     0.08744   0.56528   0.90892   0.00000  Uiso   1.00
C693   C     0.14477   0.42343   0.86568   0.00000  Uiso   1.00
C694   C     0.18959   0.52990   0.94423   0.00000  Uiso   1.00
C695   C     0.15202   0.55135   0.94353   0.00000  Uiso   1.00
C696   C     0.10829   0.40503   0.86196   0.00000  Uiso   1.00
C697   C     0.10599   0.40549   0.61249   0.00000  Uiso   1.00
C698   C     0.20577   0.44961   0.82619   0.00000  Uiso   1.00
C699   C     0.10878   0.59319   0.98744   0.00000  Uiso   1.00
C700   C     0.07999   0.58951   0.94982   0.00000  Uiso   1.00
C701   C     0.04190   0.61287   0.19877   0.00000  Uiso   1.00
C702   C     0.11233   0.73965   0.11323   0.00000  Uiso   1.00
C703   C     0.14734   0.75946   0.11395   0.00000  Uiso   1.00
C704   C     0.12702   0.71539   0.02931   0.00000  Uiso   1.00
C705   C     0.16452   0.73460   0.03150   0.00000  Uiso   1.00
C706   C     0.06163   0.70097   0.07112   0.00000  Uiso   1.00
C707   C     0.10078   0.71958   0.06987   0.00000  Uiso   1.00
C708   C     0.20948   0.78107   0.07219   0.00000  Uiso   1.00
C709   C     0.17438   0.75620   0.07489   0.00000  Uiso   1.00
C710   C     0.04061   0.61551   0.44572   0.00000  Uiso   1.00
C711   C     0.11613   0.73501   0.36899   0.00000  Uiso   1.00
C712   C     0.15340   0.75253   0.37399   0.00000  Uiso   1.00
C713   C     0.13120   0.71898   0.28303   0.00000  Uiso   1.00
C714   C     0.16784   0.73448   0.28747   0.00000  Uiso   1.00
C715   C     0.06314   0.70295   0.32074   0.00000  Uiso   1.00
C716   C     0.10352   0.72090   0.32236   0.00000  Uiso   1.00
C717   C     0.20813   0.78290   0.32790   0.00000  Uiso   1.00
C718   C     0.17723   0.75516   0.33185   0.00000  Uiso   1.00
C719   C     0.04278   0.61339   0.70036   0.00000  Uiso   1.00
C720   C     0.10712   0.75022   0.60824   0.00000  Uiso   1.00
C721   C     0.14398   0.76477   0.60994   0.00000  Uiso   1.00
C722   C     0.12685   0.71515   0.53468   0.00000  Uiso   1.00
C723   C     0.16210   0.73181   0.53572   0.00000  Uiso   1.00
C724   C     0.06150   0.70284   0.57230   0.00000  Uiso   1.00
C725   C     0.09888   0.72171   0.57191   0.00000  Uiso   1.00
C726   C     0.17316   0.75575   0.57458   0.00000  Uiso   1.00
C727   C     0.04559   0.61433   0.94416   0.00000  Uiso   1.00
C728   C     0.11149   0.73942   0.86564   0.00000  Uiso   1.00
C729   C     0.14713   0.75723   0.86434   0.00000  Uiso   1.00
C730   C     0.12212   0.72335   0.77550   0.00000  Uiso   1.00
C731   C     0.15789   0.74173   0.77726   0.00000  Uiso   1.00
C732   C     0.05802   0.70460   0.82015   0.00000  Uiso   1.00
C733   C     0.09702   0.72317   0.81888   0.00000  Uiso   1.00
C734   C     0.20724   0.77964   0.81899   0.00000  Uiso   1.00
C735   C     0.17115   0.75879   0.82078   0.00000  Uiso   1.00
C736   C     0.20896   0.77708   0.56889   0.00000  Uiso   1.00
C737   C     0.10544   0.92705   0.48839   0.00000  Uiso   1.00
C738   C     0.12958   0.88943   0.15050   0.00000  Uiso   1.00
C739   C     0.09285   0.90686   0.15173   0.00000  Uiso   1.00
C740   C     0.19250   0.87032   0.19397   0.00000  Uiso   1.00
C741   C     0.15371   0.88778   0.19376   0.00000  Uiso   1.00
C742   C     0.04690   0.95009   0.19446   0.00000  Uiso   1.00
C743   C     0.07997   0.92314   0.19693   0.00000  Uiso   1.00
C744   C     0.13834   0.90181   0.24070   0.00000  Uiso   1.00
C745   C     0.10213   0.91787   0.24232   0.00000  Uiso   1.00
C746   C     0.12269   0.88506   0.40447   0.00000  Uiso   1.00
C747   C     0.08916   0.90714   0.40350   0.00000  Uiso   1.00
C748   C     0.19005   0.86698   0.44455   0.00000  Uiso   1.00
C749   C     0.15161   0.88801   0.44581   0.00000  Uiso   1.00
C750   C     0.04749   0.95309   0.44345   0.00000  Uiso   1.00
C751   C     0.07986   0.92796   0.44641   0.00000  Uiso   1.00
C752   C     0.14067   0.90849   0.48842   0.00000  Uiso   1.00
C753   C     0.12825   0.88658   0.64680   0.00000  Uiso   1.00
C754   C     0.09425   0.90806   0.64652   0.00000  Uiso   1.00
C755   C     0.19017   0.86564   0.68971   0.00000  Uiso   1.00
C756   C     0.15406   0.88650   0.69008   0.00000  Uiso   1.00
C757   C     0.04966   0.95072   0.69090   0.00000  Uiso   1.00
C758   C     0.08351   0.92683   0.69195   0.00000  Uiso   1.00
C759   C     0.14164   0.90559   0.73544   0.00000  Uiso   1.00
C760   C     0.10686   0.92326   0.73626   0.00000  Uiso   1.00
C761   C     0.13014   0.88604   0.89816   0.00000  Uiso   1.00
C762   C     0.09514   0.90587   0.90006   0.00000  Uiso   1.00
C763   C     0.19361   0.86981   0.94047   0.00000  Uiso   1.00
C764   C     0.15775   0.89006   0.93781   0.00000  Uiso   1.00
C765   C     0.05183   0.95236   0.94092   0.00000  Uiso   1.00
C766   C     0.08617   0.92785   0.94209   0.00000  Uiso   1.00
C767   C     0.15154   0.91658   0.97497   0.00000  Uiso   1.00
C768   C     0.11399   0.93295   0.98035   0.00000  Uiso   1.00
C769   C     0.37800   0.12087   0.03466   0.00000  Uiso   1.00
C770   C     0.41350   0.10039   0.03477   0.00000  Uiso   1.00
C771   C     0.31124   0.13808   0.06938   0.00000  Uiso   1.00
C772   C     0.34771   0.11545   0.07062   0.00000  Uiso   1.00
C773   C     0.45585   0.05470   0.07688   0.00000  Uiso   1.00
C774   C     0.41955   0.07849   0.07574   0.00000  Uiso   1.00
C775   C     0.35497   0.09221   0.11181   0.00000  Uiso   1.00
C776   C     0.39105   0.07407   0.11392   0.00000  Uiso   1.00
C777   C     0.37551   0.11220   0.28057   0.00000  Uiso   1.00
C778   C     0.41143   0.09379   0.28265   0.00000  Uiso   1.00
C779   C     0.30939   0.13170   0.31898   0.00000  Uiso   1.00
C780   C     0.34560   0.10804   0.31743   0.00000  Uiso   1.00
C781   C     0.45414   0.04769   0.32112   0.00000  Uiso   1.00
C782   C     0.41980   0.07187   0.32392   0.00000  Uiso   1.00
C783   C     0.35625   0.08542   0.36014   0.00000  Uiso   1.00
C784   C     0.39246   0.06853   0.36301   0.00000  Uiso   1.00
C785   C     0.37561   0.11180   0.52587   0.00000  Uiso   1.00
C786   C     0.41213   0.09480   0.53219   0.00000  Uiso   1.00
C787   C     0.30916   0.12841   0.56652   0.00000  Uiso   1.00
C788   C     0.34838   0.10878   0.56716   0.00000  Uiso   1.00
C789   C     0.45681   0.04990   0.57676   0.00000  Uiso   1.00
C790   C     0.42185   0.07633   0.57696   0.00000  Uiso   1.00
C791   C     0.35890   0.08989   0.61052   0.00000  Uiso   1.00
C792   C     0.39568   0.07468   0.61783   0.00000  Uiso   1.00
C793   C     0.37479   0.11692   0.77775   0.00000  Uiso   1.00
C794   C     0.41007   0.09832   0.77892   0.00000  Uiso   1.00
C795   C     0.30940   0.13209   0.81797   0.00000  Uiso   1.00
C796   C     0.34907   0.11802   0.81900   0.00000  Uiso   1.00
C797   C     0.45403   0.05250   0.81854   0.00000  Uiso   1.00
C798   C     0.42112   0.07890   0.82149   0.00000  Uiso   1.00
C799   C     0.36160   0.09889   0.86277   0.00000  Uiso   1.00
C800   C     0.39787   0.08043   0.86395   0.00000  Uiso   1.00
C801   C     0.36355   0.23154   0.48607   0.00000  Uiso   1.00
C802   C     0.30150   0.20803   0.44749   0.00000  Uiso   1.00
C803   C     0.39859   0.25088   0.48294   0.00000  Uiso   1.00
C804   C     0.39387   0.26000   0.23571   0.00000  Uiso   1.00
C805   C     0.35841   0.24087   0.23802   0.00000  Uiso   1.00
C806   C     0.37337   0.28310   0.15415   0.00000  Uiso   1.00
C807   C     0.34079   0.25976   0.15480   0.00000  Uiso   1.00
C808   C     0.44165   0.30195   0.19173   0.00000  Uiso   1.00
C809   C     0.40258   0.28127   0.19321   0.00000  Uiso   1.00
C810   C     0.29841   0.21482   0.19712   0.00000  Uiso   1.00
C811   C     0.33262   0.24085   0.19730   0.00000  Uiso   1.00
C812   C     0.45186   0.37833   0.07286   0.00000  Uiso   1.00
C813   C     0.37571   0.27995   0.40587   0.00000  Uiso   1.00
C814   C     0.34181   0.25835   0.40967   0.00000  Uiso   1.00
C815   C     0.44255   0.29554   0.44276   0.00000  Uiso   1.00
C816   C     0.40486   0.27628   0.44461   0.00000  Uiso   1.00
C817   C     0.33473   0.23512   0.45059   0.00000  Uiso   1.00
C818   C     0.45072   0.38000   0.31918   0.00000  Uiso   1.00
C819   C     0.39164   0.25487   0.73578   0.00000  Uiso   1.00
C820   C     0.35852   0.23343   0.73783   0.00000  Uiso   1.00
C821   C     0.37623   0.27462   0.64999   0.00000  Uiso   1.00
C822   C     0.34176   0.25328   0.65252   0.00000  Uiso   1.00
C823   C     0.44036   0.29608   0.69097   0.00000  Uiso   1.00
C824   C     0.40240   0.27498   0.69104   0.00000  Uiso   1.00
C825   C     0.33172   0.23226   0.69461   0.00000  Uiso   1.00
C826   C     0.45281   0.38015   0.57387   0.00000  Uiso   1.00
C827   C     0.35556   0.24175   0.98866   0.00000  Uiso   1.00
C828   C     0.37385   0.28208   0.90284   0.00000  Uiso   1.00
C829   C     0.33693   0.26445   0.90483   0.00000  Uiso   1.00
C830   C     0.44084   0.29835   0.94175   0.00000  Uiso   1.00
C831   C     0.40253   0.27942   0.94195   0.00000  Uiso   1.00
C832   C     0.29478   0.21875   0.94462   0.00000  Uiso   1.00
C833   C     0.32912   0.24310   0.94606   0.00000  Uiso   1.00
C834   C     0.45163   0.37815   0.81601   0.00000  Uiso   1.00
C835   C     0.39053   0.26094   0.98714   0.00000  Uiso   1.00
C836   C     0.29778   0.20962   0.69454   0.00000  Uiso   1.00
C837   C     0.38745   0.39958   0.61372   0.00000  Uiso   1.00
C838   C     0.35432   0.57802   0.48952   0.00000  Uiso   1.00
C839   C     0.33829   0.59842   0.15699   0.00000  Uiso   1.00
C840   C     0.41546   0.40256   0.07564   0.00000  Uiso   1.00
C841   C     0.29187   0.55407   0.44933   0.00000  Uiso   1.00
C842   C     0.39072   0.40383   0.36232   0.00000  Uiso   1.00
C843   C     0.41610   0.40479   0.32056   0.00000  Uiso   1.00
C844   C     0.36785   0.43881   0.03119   0.00000  Uiso   1.00
C845   C     0.32586   0.57947   0.45014   0.00000  Uiso   1.00
C846   C     0.40251   0.41948   0.03139   0.00000  Uiso   1.00
C847   C     0.35614   0.57584   0.24126   0.00000  Uiso   1.00
C848   C     0.30816   0.46284   0.07517   0.00000  Uiso   1.00
C849   C     0.34241   0.43943   0.07356   0.00000  Uiso   1.00
C850   C     0.35421   0.42108   0.36298   0.00000  Uiso   1.00
C851   C     0.35718   0.42242   0.11967   0.00000  Uiso   1.00
C852   C     0.29633   0.55094   0.19943   0.00000  Uiso   1.00
C853   C     0.33009   0.57523   0.19810   0.00000  Uiso   1.00
C854   C     0.36975   0.44762   0.28018   0.00000  Uiso   1.00
C855   C     0.40532   0.42760   0.27948   0.00000  Uiso   1.00
C856   C     0.30565   0.46447   0.31969   0.00000  Uiso   1.00
C857   C     0.34336   0.44353   0.32057   0.00000  Uiso   1.00
C858   C     0.39409   0.40496   0.12077   0.00000  Uiso   1.00
C859   C     0.38925   0.59883   0.24083   0.00000  Uiso   1.00
C860   C     0.39096   0.59663   0.48570   0.00000  Uiso   1.00
C861   C     0.35162   0.58620   0.98819   0.00000  Uiso   1.00
C862   C     0.29665   0.55492   0.94510   0.00000  Uiso   1.00
C863   C     0.39064   0.59380   0.72834   0.00000  Uiso   1.00
C864   C     0.33673   0.59524   0.65053   0.00000  Uiso   1.00
C865   C     0.32918   0.58161   0.94421   0.00000  Uiso   1.00
C866   C     0.37600   0.44906   0.53380   0.00000  Uiso   1.00
C867   C     0.41075   0.42912   0.53634   0.00000  Uiso   1.00
C868   C     0.35752   0.57107   0.72970   0.00000  Uiso   1.00
C869   C     0.30666   0.46304   0.57063   0.00000  Uiso   1.00
C870   C     0.34455   0.44336   0.56912   0.00000  Uiso   1.00
C871   C     0.35269   0.41806   0.60844   0.00000  Uiso   1.00
C872   C     0.29629   0.54844   0.69311   0.00000  Uiso   1.00
C873   C     0.32972   0.57211   0.69129   0.00000  Uiso   1.00
C874   C     0.37855   0.45131   0.78177   0.00000  Uiso   1.00
C875   C     0.41373   0.43100   0.78559   0.00000  Uiso   1.00
C876   C     0.31211   0.46480   0.81958   0.00000  Uiso   1.00
C877   C     0.35027   0.44759   0.82150   0.00000  Uiso   1.00
C878   C     0.35617   0.42020   0.85853   0.00000  Uiso   1.00
C879   C     0.39250   0.40101   0.86185   0.00000  Uiso   1.00
C880   C     0.41790   0.40387   0.57649   0.00000  Uiso   1.00
C881   C     0.41934   0.40493   0.82267   0.00000  Uiso   1.00
C882   C     0.39893   0.61723   0.44318   0.00000  Uiso   1.00
C883   C     0.37083   0.62244   0.15802   0.00000  Uiso   1.00
C884   C     0.36977   0.62076   0.40357   0.00000  Uiso   1.00
C885   C     0.39715   0.62019   0.19828   0.00000  Uiso   1.00
C886   C     0.43786   0.63565   0.19564   0.00000  Uiso   1.00
C887   C     0.37896   0.78631   0.03378   0.00000  Uiso   1.00
C888   C     0.41126   0.76273   0.03200   0.00000  Uiso   1.00
C889   C     0.35158   0.78176   0.07271   0.00000  Uiso   1.00
C890   C     0.45333   0.71365   0.07002   0.00000  Uiso   1.00
C891   C     0.42100   0.73989   0.07263   0.00000  Uiso   1.00
C892   C     0.36367   0.76510   0.11802   0.00000  Uiso   1.00
C893   C     0.39742   0.74308   0.11547   0.00000  Uiso   1.00
C894   C     0.43612   0.63602   0.43950   0.00000  Uiso   1.00
C895   C     0.38075   0.79020   0.27851   0.00000  Uiso   1.00
C896   C     0.41407   0.76771   0.27964   0.00000  Uiso   1.00
C897   C     0.35471   0.78781   0.32080   0.00000  Uiso   1.00
C898   C     0.45541   0.71825   0.32133   0.00000  Uiso   1.00
C899   C     0.42457   0.74571   0.32156   0.00000  Uiso   1.00
C900   C     0.36447   0.76706   0.36245   0.00000  Uiso   1.00
C901   C     0.39991   0.74812   0.36451   0.00000  Uiso   1.00
C902   C     0.33454   0.60095   0.40729   0.00000  Uiso   1.00
C903   C     0.37598   0.61949   0.89812   0.00000  Uiso   1.00
C904   C     0.36888   0.61992   0.65002   0.00000  Uiso   1.00
C905   C     0.43753   0.63719   0.68913   0.00000  Uiso   1.00
C906   C     0.39868   0.61760   0.68796   0.00000  Uiso   1.00
C907   C     0.37720   0.78167   0.53097   0.00000  Uiso   1.00
C908   C     0.41428   0.76593   0.53406   0.00000  Uiso   1.00
C909   C     0.39950   0.62298   0.94243   0.00000  Uiso   1.00
C910   C     0.34992   0.77841   0.57180   0.00000  Uiso   1.00
C911   C     0.45483   0.71460   0.56878   0.00000  Uiso   1.00
C912   C     0.42279   0.74085   0.57216   0.00000  Uiso   1.00
C913   C     0.36110   0.75588   0.60935   0.00000  Uiso   1.00
C914   C     0.39734   0.73795   0.61124   0.00000  Uiso   1.00
C915   C     0.43900   0.63986   0.94208   0.00000  Uiso   1.00
C916   C     0.38165   0.78553   0.77776   0.00000  Uiso   1.00
C917   C     0.41831   0.76605   0.78135   0.00000  Uiso   1.00
C918   C     0.35302   0.78215   0.81506   0.00000  Uiso   1.00
C919   C     0.45532   0.71204   0.81975   0.00000  Uiso   1.00
C920   C     0.42347   0.74111   0.82390   0.00000  Uiso   1.00
C921   C     0.36144   0.76101   0.85791   0.00000  Uiso   1.00
C922   C     0.39596   0.73867   0.86190   0.00000  Uiso   1.00
C923   C     0.38709   0.60704   0.98625   0.00000  Uiso   1.00
C924   C     0.31060   0.79597   0.57216   0.00000  Uiso   1.00
C925   C     0.34069   0.60027   0.89987   0.00000  Uiso   1.00
C926   C     0.35539   0.90293   0.49712   0.00000  Uiso   1.00
C927   C     0.31353   0.80181   0.07096   0.00000  Uiso   1.00
C928   C     0.31479   0.80229   0.31861   0.00000  Uiso   1.00
C929   C     0.39521   0.92287   0.23822   0.00000  Uiso   1.00
C930   C     0.35862   0.90571   0.24185   0.00000  Uiso   1.00
C931   C     0.38015   0.94688   0.15573   0.00000  Uiso   1.00
C932   C     0.34632   0.92647   0.15522   0.00000  Uiso   1.00
C933   C     0.44383   0.96292   0.19602   0.00000  Uiso   1.00
C934   C     0.40602   0.94387   0.19576   0.00000  Uiso   1.00
C935   C     0.30036   0.88074   0.19470   0.00000  Uiso   1.00
C936   C     0.33484   0.90536   0.19708   0.00000  Uiso   1.00
C937   C     0.39216   0.91872   0.49298   0.00000  Uiso   1.00
C938   C     0.38097   0.93851   0.40829   0.00000  Uiso   1.00
C939   C     0.34525   0.92071   0.40956   0.00000  Uiso   1.00
C940   C     0.44365   0.95612   0.45009   0.00000  Uiso   1.00
C941   C     0.40552   0.93714   0.45015   0.00000  Uiso   1.00
C942   C     0.29738   0.88053   0.45163   0.00000  Uiso   1.00
C943   C     0.33200   0.90441   0.45426   0.00000  Uiso   1.00
C944   C     0.39112   0.92675   0.73674   0.00000  Uiso   1.00
C945   C     0.35440   0.90843   0.73953   0.00000  Uiso   1.00
C946   C     0.37229   0.94865   0.65312   0.00000  Uiso   1.00
C947   C     0.33787   0.92944   0.65470   0.00000  Uiso   1.00
C948   C     0.43754   0.96869   0.69500   0.00000  Uiso   1.00
C949   C     0.39909   0.94813   0.69598   0.00000  Uiso   1.00
C950   C     0.29619   0.88175   0.69509   0.00000  Uiso   1.00
C951   C     0.32798   0.90841   0.69619   0.00000  Uiso   1.00
C952   C     0.37186   0.95012   0.91027   0.00000  Uiso   1.00
C953   C     0.33693   0.93014   0.91081   0.00000  Uiso   1.00
C954   C     0.43979   0.96511   0.94787   0.00000  Uiso   1.00
C955   C     0.40160   0.94609   0.94881   0.00000  Uiso   1.00
C956   C     0.30051   0.87621   0.94666   0.00000  Uiso   1.00
C957   C     0.33160   0.90424   0.94863   0.00000  Uiso   1.00
C958   C     0.35776   0.90413   0.99163   0.00000  Uiso   1.00
C959   C     0.39224   0.92338   0.98928   0.00000  Uiso   1.00
C960   C     0.31510   0.80251   0.81177   0.00000  Uiso   1.00
C961   C     0.61270   0.06622   0.11576   0.00000  Uiso   1.00
C962   C     0.64784   0.08369   0.11801   0.00000  Uiso   1.00
C963   C     0.62843   0.04460   0.03150   0.00000  Uiso   1.00
C964   C     0.66560   0.06295   0.03319   0.00000  Uiso   1.00
C965   C     0.56295   0.03114   0.06881   0.00000  Uiso   1.00
C966   C     0.60105   0.04779   0.07177   0.00000  Uiso   1.00
C967   C     0.70718   0.11019   0.07365   0.00000  Uiso   1.00
C968   C     0.67481   0.08383   0.07541   0.00000  Uiso   1.00
C969   C     0.61071   0.07335   0.36336   0.00000  Uiso   1.00
C970   C     0.64728   0.09231   0.36580   0.00000  Uiso   1.00
C971   C     0.62861   0.04980   0.28169   0.00000  Uiso   1.00
C972   C     0.66488   0.06850   0.28489   0.00000  Uiso   1.00
C973   C     0.56310   0.03157   0.32424   0.00000  Uiso   1.00
C974   C     0.60195   0.04978   0.32320   0.00000  Uiso   1.00
C975   C     0.70907   0.11545   0.32558   0.00000  Uiso   1.00
C976   C     0.67413   0.09051   0.32552   0.00000  Uiso   1.00
C977   C     0.69152   0.19872   0.19672   0.00000  Uiso   1.00
C978   C     0.61440   0.06524   0.61687   0.00000  Uiso   1.00
C979   C     0.64893   0.08795   0.61583   0.00000  Uiso   1.00
C980   C     0.63057   0.04613   0.53139   0.00000  Uiso   1.00
C981   C     0.66476   0.06571   0.53385   0.00000  Uiso   1.00
C982   C     0.56396   0.02913   0.57031   0.00000  Uiso   1.00
C983   C     0.60487   0.04596   0.57233   0.00000  Uiso   1.00
C984   C     0.70589   0.11393   0.57283   0.00000  Uiso   1.00
C985   C     0.67386   0.08832   0.57483   0.00000  Uiso   1.00
C986   C     0.61537   0.07129   0.86421   0.00000  Uiso   1.00
C987   C     0.65337   0.08533   0.86804   0.00000  Uiso   1.00
C988   C     0.63074   0.04594   0.78358   0.00000  Uiso   1.00
C989   C     0.66965   0.06065   0.78553   0.00000  Uiso   1.00
C990   C     0.56002   0.03677   0.82098   0.00000  Uiso   1.00
C991   C     0.60118   0.05201   0.82060   0.00000  Uiso   1.00
C992   C     0.71361   0.10742   0.82270   0.00000  Uiso   1.00
C993   C     0.67995   0.08279   0.82700   0.00000  Uiso   1.00
C994   C     0.68868   0.19797   0.94213   0.00000  Uiso   1.00
C995   C     0.56196   0.37129   0.32163   0.00000  Uiso   1.00
C996   C     0.59534   0.39230   0.06526   0.00000  Uiso   1.00
C997   C     0.64522   0.24279   0.48480   0.00000  Uiso   1.00
C998   C     0.62412   0.21441   0.15619   0.00000  Uiso   1.00
C999   C     0.58866   0.23462   0.15655   0.00000  Uiso   1.00
C1000  C     0.62828   0.38656   0.28252   0.00000  Uiso   1.00
C1001  C     0.65162   0.21739   0.19520   0.00000  Uiso   1.00
C1002  C     0.54939   0.28526   0.19594   0.00000  Uiso   1.00
C1003  C     0.58069   0.25796   0.19677   0.00000  Uiso   1.00
C1004  C     0.64156   0.23837   0.23785   0.00000  Uiso   1.00
C1005  C     0.60900   0.25899   0.23647   0.00000  Uiso   1.00
C1006  C     0.55842   0.37266   0.06398   0.00000  Uiso   1.00
C1007  C     0.62781   0.21760   0.40218   0.00000  Uiso   1.00
C1008  C     0.59381   0.23920   0.40281   0.00000  Uiso   1.00
C1009  C     0.65375   0.22105   0.44173   0.00000  Uiso   1.00
C1010  C     0.54674   0.28349   0.44280   0.00000  Uiso   1.00
C1011  C     0.58304   0.26073   0.44466   0.00000  Uiso   1.00
C1012  C     0.60930   0.26104   0.48645   0.00000  Uiso   1.00
C1013  C     0.62117   0.39143   0.02389   0.00000  Uiso   1.00
C1014  C     0.60028   0.39028   0.32063   0.00000  Uiso   1.00
C1015  C     0.69223   0.20139   0.44369   0.00000  Uiso   1.00
C1016  C     0.62477   0.38915   0.77978   0.00000  Uiso   1.00
C1017  C     0.60311   0.25713   0.99101   0.00000  Uiso   1.00
C1018  C     0.63988   0.23959   0.98364   0.00000  Uiso   1.00
C1019  C     0.59906   0.38755   0.57084   0.00000  Uiso   1.00
C1020  C     0.63199   0.22354   0.64954   0.00000  Uiso   1.00
C1021  C     0.59578   0.23960   0.65536   0.00000  Uiso   1.00
C1022  C     0.65889   0.22589   0.69098   0.00000  Uiso   1.00
C1023  C     0.54880   0.28391   0.69745   0.00000  Uiso   1.00
C1024  C     0.58505   0.25915   0.69808   0.00000  Uiso   1.00
C1025  C     0.64777   0.24312   0.73793   0.00000  Uiso   1.00
C1026  C     0.61159   0.26049   0.74062   0.00000  Uiso   1.00
C1027  C     0.56056   0.36985   0.56829   0.00000  Uiso   1.00
C1028  C     0.55817   0.37195   0.81638   0.00000  Uiso   1.00
C1029  C     0.62228   0.21491   0.90361   0.00000  Uiso   1.00
C1030  C     0.58578   0.23358   0.90785   0.00000  Uiso   1.00
C1031  C     0.59605   0.39361   0.81757   0.00000  Uiso   1.00
C1032  C     0.64990   0.21839   0.94223   0.00000  Uiso   1.00
C1033  C     0.54553   0.28220   0.94646   0.00000  Uiso   1.00
C1034  C     0.57743   0.25640   0.94984   0.00000  Uiso   1.00
C1035  C     0.62647   0.38498   0.53113   0.00000  Uiso   1.00
C1036  C     0.69655   0.20620   0.69078   0.00000  Uiso   1.00
C1037  C     0.66275   0.40715   0.28306   0.00000  Uiso   1.00
C1038  C     0.60288   0.59240   0.24133   0.00000  Uiso   1.00
C1039  C     0.60570   0.40806   0.11161   0.00000  Uiso   1.00
C1040  C     0.62197   0.55104   0.15290   0.00000  Uiso   1.00
C1041  C     0.58658   0.57058   0.15661   0.00000  Uiso   1.00
C1042  C     0.64205   0.42490   0.11415   0.00000  Uiso   1.00
C1043  C     0.68688   0.53832   0.19178   0.00000  Uiso   1.00
C1044  C     0.64956   0.55485   0.19315   0.00000  Uiso   1.00
C1045  C     0.64023   0.57677   0.23592   0.00000  Uiso   1.00
C1046  C     0.69790   0.45663   0.06908   0.00000  Uiso   1.00
C1047  C     0.66633   0.42971   0.06975   0.00000  Uiso   1.00
C1048  C     0.62123   0.54919   0.39453   0.00000  Uiso   1.00
C1049  C     0.57698   0.59138   0.20013   0.00000  Uiso   1.00
C1050  C     0.58433   0.56663   0.39657   0.00000  Uiso   1.00
C1051  C     0.64402   0.43236   0.36438   0.00000  Uiso   1.00
C1052  C     0.68469   0.53122   0.43823   0.00000  Uiso   1.00
C1053  C     0.64557   0.54766   0.43771   0.00000  Uiso   1.00
C1054  C     0.63192   0.56271   0.48345   0.00000  Uiso   1.00
C1055  C     0.70323   0.45493   0.32125   0.00000  Uiso   1.00
C1056  C     0.67064   0.43010   0.32410   0.00000  Uiso   1.00
C1057  C     0.61035   0.41336   0.36367   0.00000  Uiso   1.00
C1058  C     0.65384   0.41312   0.02471   0.00000  Uiso   1.00
C1059  C     0.59840   0.58377   0.48474   0.00000  Uiso   1.00
C1060  C     0.57335   0.58521   0.44123   0.00000  Uiso   1.00
C1061  C     0.57188   0.58266   0.70033   0.00000  Uiso   1.00
C1062  C     0.63656   0.57081   0.98984   0.00000  Uiso   1.00
C1063  C     0.60354   0.41661   0.85947   0.00000  Uiso   1.00
C1064  C     0.59843   0.58819   0.99380   0.00000  Uiso   1.00
C1065  C     0.61974   0.54598   0.65031   0.00000  Uiso   1.00
C1066  C     0.58371   0.56405   0.65578   0.00000  Uiso   1.00
C1067  C     0.64839   0.42029   0.61884   0.00000  Uiso   1.00
C1068  C     0.68453   0.52920   0.69193   0.00000  Uiso   1.00
C1069  C     0.64593   0.54693   0.69232   0.00000  Uiso   1.00
C1070  C     0.63457   0.56403   0.73620   0.00000  Uiso   1.00
C1071  C     0.70322   0.45164   0.57143   0.00000  Uiso   1.00
C1072  C     0.67179   0.42274   0.57527   0.00000  Uiso   1.00
C1073  C     0.61646   0.54590   0.90734   0.00000  Uiso   1.00
C1074  C     0.58021   0.56159   0.91112   0.00000  Uiso   1.00
C1075  C     0.64084   0.43153   0.86693   0.00000  Uiso   1.00
C1076  C     0.68479   0.53262   0.94515   0.00000  Uiso   1.00
C1077  C     0.64412   0.54949   0.94706   0.00000  Uiso   1.00
C1078  C     0.65939   0.40848   0.78387   0.00000  Uiso   1.00
C1079  C     0.66296   0.40141   0.53331   0.00000  Uiso   1.00
C1080  C     0.70207   0.45521   0.82696   0.00000  Uiso   1.00
C1081  C     0.66870   0.42905   0.82758   0.00000  Uiso   1.00
C1082  C     0.57248   0.58384   0.95403   0.00000  Uiso   1.00
C1083  C     0.61073   0.40519   0.61585   0.00000  Uiso   1.00
C1084  C     0.59933   0.58204   0.73959   0.00000  Uiso   1.00
C1085  C     0.54366   0.61586   0.19717   0.00000  Uiso   1.00
C1086  C     0.61104   0.73805   0.11649   0.00000  Uiso   1.00
C1087  C     0.64619   0.75938   0.11884   0.00000  Uiso   1.00
C1088  C     0.62871   0.71657   0.03179   0.00000  Uiso   1.00
C1089  C     0.66224   0.73840   0.03524   0.00000  Uiso   1.00
C1090  C     0.56278   0.69687   0.06912   0.00000  Uiso   1.00
C1091  C     0.60131   0.71672   0.07294   0.00000  Uiso   1.00
C1092  C     0.70230   0.78804   0.07247   0.00000  Uiso   1.00
C1093  C     0.66939   0.76228   0.07590   0.00000  Uiso   1.00
C1094  C     0.53760   0.60884   0.44050   0.00000  Uiso   1.00
C1095  C     0.60802   0.74553   0.36402   0.00000  Uiso   1.00
C1096  C     0.64540   0.76140   0.36703   0.00000  Uiso   1.00
C1097  C     0.62477   0.71969   0.28139   0.00000  Uiso   1.00
C1098  C     0.66255   0.73658   0.28269   0.00000  Uiso   1.00
C1099  C     0.55781   0.70551   0.32054   0.00000  Uiso   1.00
C1100  C     0.59572   0.72610   0.32204   0.00000  Uiso   1.00
C1101  C     0.70710   0.78276   0.32176   0.00000  Uiso   1.00
C1102  C     0.67116   0.75950   0.32368   0.00000  Uiso   1.00
C1103  C     0.54186   0.61058   0.69595   0.00000  Uiso   1.00
C1104  C     0.60395   0.74375   0.60476   0.00000  Uiso   1.00
C1105  C     0.63833   0.76259   0.60949   0.00000  Uiso   1.00
C1106  C     0.62672   0.71921   0.52362   0.00000  Uiso   1.00
C1107  C     0.66055   0.74066   0.52597   0.00000  Uiso   1.00
C1108  C     0.56100   0.70033   0.56306   0.00000  Uiso   1.00
C1109  C     0.59755   0.72191   0.56270   0.00000  Uiso   1.00
C1110  C     0.69900   0.78859   0.56760   0.00000  Uiso   1.00
C1111  C     0.66595   0.76322   0.56874   0.00000  Uiso   1.00
C1112  C     0.54109   0.61356   0.94848   0.00000  Uiso   1.00
C1113  C     0.60962   0.73953   0.86071   0.00000  Uiso   1.00
C1114  C     0.64205   0.76148   0.86077   0.00000  Uiso   1.00
C1115  C     0.62768   0.71378   0.77914   0.00000  Uiso   1.00
C1116  C     0.66068   0.73646   0.78107   0.00000  Uiso   1.00
C1117  C     0.56318   0.69864   0.81743   0.00000  Uiso   1.00
C1118  C     0.60089   0.71603   0.81985   0.00000  Uiso   1.00
C1119  C     0.70161   0.78699   0.82206   0.00000  Uiso   1.00
C1120  C     0.66978   0.75981   0.82370   0.00000  Uiso   1.00
C1121  C     0.63931   0.90326   0.48791   0.00000  Uiso   1.00
C1122  C     0.62446   0.88340   0.15176   0.00000  Uiso   1.00
C1123  C     0.58942   0.90383   0.15283   0.00000  Uiso   1.00
C1124  C     0.69051   0.86686   0.18836   0.00000  Uiso   1.00
C1125  C     0.65248   0.88606   0.18989   0.00000  Uiso   1.00
C1126  C     0.54695   0.94945   0.19547   0.00000  Uiso   1.00
C1127  C     0.58160   0.92357   0.19687   0.00000  Uiso   1.00
C1128  C     0.64295   0.90468   0.23317   0.00000  Uiso   1.00
C1129  C     0.60850   0.92523   0.23584   0.00000  Uiso   1.00
C1130  C     0.62387   0.88458   0.40227   0.00000  Uiso   1.00
C1131  C     0.58922   0.90546   0.40432   0.00000  Uiso   1.00
C1132  C     0.68813   0.86546   0.44453   0.00000  Uiso   1.00
C1133  C     0.64987   0.88469   0.44362   0.00000  Uiso   1.00
C1134  C     0.54363   0.94762   0.44781   0.00000  Uiso   1.00
C1135  C     0.57717   0.92157   0.44906   0.00000  Uiso   1.00
C1136  C     0.60234   0.91972   0.49125   0.00000  Uiso   1.00
C1137  C     0.60851   0.93133   0.98775   0.00000  Uiso   1.00
C1138  C     0.64258   0.91069   0.98582   0.00000  Uiso   1.00
C1139  C     0.61888   0.87732   0.65832   0.00000  Uiso   1.00
C1140  C     0.58378   0.89650   0.66060   0.00000  Uiso   1.00
C1141  C     0.68291   0.86168   0.69263   0.00000  Uiso   1.00
C1142  C     0.64634   0.88072   0.69742   0.00000  Uiso   1.00
C1143  C     0.54522   0.94827   0.69988   0.00000  Uiso   1.00
C1144  C     0.57641   0.92071   0.70068   0.00000  Uiso   1.00
C1145  C     0.63830   0.90439   0.73770   0.00000  Uiso   1.00
C1146  C     0.60330   0.92140   0.74156   0.00000  Uiso   1.00
C1147  C     0.62481   0.88993   0.90028   0.00000  Uiso   1.00
C1148  C     0.58822   0.91072   0.90407   0.00000  Uiso   1.00
C1149  C     0.69022   0.87016   0.94372   0.00000  Uiso   1.00
C1150  C     0.65224   0.89105   0.94298   0.00000  Uiso   1.00
C1151  C     0.54727   0.95609   0.94755   0.00000  Uiso   1.00
C1152  C     0.58086   0.93084   0.94775   0.00000  Uiso   1.00
C1153  C     0.87807   0.11970   0.02506   0.00000  Uiso   1.00
C1154  C     0.91293   0.10026   0.02421   0.00000  Uiso   1.00
C1155  C     0.81267   0.13367   0.06781   0.00000  Uiso   1.00
C1156  C     0.85210   0.11761   0.06721   0.00000  Uiso   1.00
C1157  C     0.96011   0.05603   0.06563   0.00000  Uiso   1.00
C1158  C     0.92611   0.08262   0.06947   0.00000  Uiso   1.00
C1159  C     0.86322   0.09836   0.10838   0.00000  Uiso   1.00
C1160  C     0.90065   0.08243   0.11128   0.00000  Uiso   1.00
C1161  C     0.87827   0.11516   0.27478   0.00000  Uiso   1.00
C1162  C     0.91029   0.09168   0.27321   0.00000  Uiso   1.00
C1163  C     0.81405   0.13587   0.31803   0.00000  Uiso   1.00
C1164  C     0.85134   0.11628   0.31591   0.00000  Uiso   1.00
C1165  C     0.95571   0.04777   0.31698   0.00000  Uiso   1.00
C1166  C     0.92046   0.07188   0.31656   0.00000  Uiso   1.00
C1167  C     0.86154   0.09710   0.35870   0.00000  Uiso   1.00
C1168  C     0.89605   0.07563   0.36104   0.00000  Uiso   1.00
C1169  C     0.87828   0.11830   0.53032   0.00000  Uiso   1.00
C1170  C     0.91211   0.09784   0.53062   0.00000  Uiso   1.00
C1171  C     0.81440   0.13457   0.56745   0.00000  Uiso   1.00
C1172  C     0.84974   0.11285   0.56804   0.00000  Uiso   1.00
C1173  C     0.95526   0.05156   0.56893   0.00000  Uiso   1.00
C1174  C     0.92174   0.07680   0.57244   0.00000  Uiso   1.00
C1175  C     0.85870   0.09253   0.61290   0.00000  Uiso   1.00
C1176  C     0.89462   0.07356   0.61396   0.00000  Uiso   1.00
C1177  C     0.88031   0.11754   0.77690   0.00000  Uiso   1.00
C1178  C     0.91397   0.09589   0.77719   0.00000  Uiso   1.00
C1179  C     0.81354   0.13429   0.81683   0.00000  Uiso   1.00
C1180  C     0.85315   0.11593   0.81792   0.00000  Uiso   1.00
C1181  C     0.95643   0.04773   0.81312   0.00000  Uiso   1.00
C1182  C     0.92326   0.07425   0.81595   0.00000  Uiso   1.00
C1183  C     0.86479   0.09675   0.86167   0.00000  Uiso   1.00
C1184  C     0.89958   0.07484   0.86044   0.00000  Uiso   1.00
C1185  C     0.85752   0.23713   0.49578   0.00000  Uiso   1.00
C1186  C     0.89527   0.25308   0.22933   0.00000  Uiso   1.00
C1187  C     0.85748   0.23598   0.23137   0.00000  Uiso   1.00
C1188  C     0.87558   0.27810   0.14643   0.00000  Uiso   1.00
C1189  C     0.84224   0.25618   0.14628   0.00000  Uiso   1.00
C1190  C     0.94236   0.29603   0.18810   0.00000  Uiso   1.00
C1191  C     0.90578   0.27394   0.18602   0.00000  Uiso   1.00
C1192  C     0.80029   0.21148   0.18885   0.00000  Uiso   1.00
C1193  C     0.83325   0.23676   0.18937   0.00000  Uiso   1.00
C1194  C     0.95240   0.38707   0.06893   0.00000  Uiso   1.00
C1195  C     0.87622   0.27737   0.40771   0.00000  Uiso   1.00
C1196  C     0.84078   0.26044   0.41311   0.00000  Uiso   1.00
C1197  C     0.94021   0.29730   0.44758   0.00000  Uiso   1.00
C1198  C     0.90264   0.27682   0.44806   0.00000  Uiso   1.00
C1199  C     0.79632   0.21447   0.45068   0.00000  Uiso   1.00
C1200  C     0.82954   0.24217   0.45560   0.00000  Uiso   1.00
C1201  C     0.95203   0.38276   0.32279   0.00000  Uiso   1.00
C1202  C     0.89319   0.25622   0.49066   0.00000  Uiso   1.00
C1203  C     0.89752   0.25601   0.73226   0.00000  Uiso   1.00
C1204  C     0.86321   0.23640   0.73562   0.00000  Uiso   1.00
C1205  C     0.87345   0.28180   0.65419   0.00000  Uiso   1.00
C1206  C     0.84011   0.25959   0.65570   0.00000  Uiso   1.00
C1207  C     0.93909   0.30075   0.69302   0.00000  Uiso   1.00
C1208  C     0.90283   0.27844   0.69213   0.00000  Uiso   1.00
C1209  C     0.83502   0.23589   0.69714   0.00000  Uiso   1.00
C1210  C     0.95567   0.38891   0.57316   0.00000  Uiso   1.00
C1211  C     0.88962   0.25878   0.98387   0.00000  Uiso   1.00
C1212  C     0.87960   0.27544   0.89730   0.00000  Uiso   1.00
C1213  C     0.84318   0.25547   0.89854   0.00000  Uiso   1.00
C1214  C     0.94164   0.29552   0.94031   0.00000  Uiso   1.00
C1215  C     0.90434   0.27561   0.93907   0.00000  Uiso   1.00
C1216  C     0.79570   0.21284   0.94344   0.00000  Uiso   1.00
C1217  C     0.82955   0.23784   0.94332   0.00000  Uiso   1.00
C1218  C     0.95346   0.38655   0.82307   0.00000  Uiso   1.00
C1219  C     0.85495   0.24074   0.98733   0.00000  Uiso   1.00
C1220  C     0.80409   0.20853   0.69449   0.00000  Uiso   1.00
C1221  C     0.89391   0.41194   0.11463   0.00000  Uiso   1.00
C1222  C     0.89147   0.59319   0.48601   0.00000  Uiso   1.00
C1223  C     0.85211   0.42177   0.35725   0.00000  Uiso   1.00
C1224  C     0.91653   0.41065   0.07062   0.00000  Uiso   1.00
C1225  C     0.91576   0.40574   0.32240   0.00000  Uiso   1.00
C1226  C     0.82984   0.57720   0.45156   0.00000  Uiso   1.00
C1227  C     0.86899   0.44855   0.02400   0.00000  Uiso   1.00
C1228  C     0.90517   0.43050   0.02738   0.00000  Uiso   1.00
C1229  C     0.84541   0.58817   0.24113   0.00000  Uiso   1.00
C1230  C     0.80674   0.46866   0.06735   0.00000  Uiso   1.00
C1231  C     0.84429   0.44860   0.06736   0.00000  Uiso   1.00
C1232  C     0.85706   0.43101   0.11269   0.00000  Uiso   1.00
C1233  C     0.79508   0.55287   0.45008   0.00000  Uiso   1.00
C1234  C     0.78990   0.56041   0.19395   0.00000  Uiso   1.00
C1235  C     0.82225   0.58741   0.19706   0.00000  Uiso   1.00
C1236  C     0.87461   0.44994   0.27855   0.00000  Uiso   1.00
C1237  C     0.90927   0.42896   0.28183   0.00000  Uiso   1.00
C1238  C     0.85545   0.57568   0.49050   0.00000  Uiso   1.00
C1239  C     0.80791   0.46845   0.31543   0.00000  Uiso   1.00
C1240  C     0.84554   0.44471   0.31544   0.00000  Uiso   1.00
C1241  C     0.88581   0.40057   0.35919   0.00000  Uiso   1.00
C1242  C     0.85503   0.42606   0.86029   0.00000  Uiso   1.00
C1243  C     0.79203   0.55676   0.94926   0.00000  Uiso   1.00
C1244  C     0.85665   0.57550   0.98658   0.00000  Uiso   1.00
C1245  C     0.87380   0.45168   0.52880   0.00000  Uiso   1.00
C1246  C     0.90919   0.43252   0.53174   0.00000  Uiso   1.00
C1247  C     0.85412   0.57933   0.73938   0.00000  Uiso   1.00
C1248  C     0.80736   0.46550   0.56960   0.00000  Uiso   1.00
C1249  C     0.84715   0.44790   0.56935   0.00000  Uiso   1.00
C1250  C     0.85921   0.43193   0.61518   0.00000  Uiso   1.00
C1251  C     0.82609   0.58294   0.95187   0.00000  Uiso   1.00
C1252  C     0.91893   0.41142   0.82488   0.00000  Uiso   1.00
C1253  C     0.79042   0.55691   0.69964   0.00000  Uiso   1.00
C1254  C     0.82694   0.58097   0.69814   0.00000  Uiso   1.00
C1255  C     0.87626   0.45573   0.78271   0.00000  Uiso   1.00
C1256  C     0.89766   0.41702   0.61861   0.00000  Uiso   1.00
C1257  C     0.91162   0.43564   0.78363   0.00000  Uiso   1.00
C1258  C     0.80894   0.46919   0.81958   0.00000  Uiso   1.00
C1259  C     0.84700   0.44963   0.82003   0.00000  Uiso   1.00
C1260  C     0.92174   0.41417   0.57622   0.00000  Uiso   1.00
C1261  C     0.89201   0.59332   0.98374   0.00000  Uiso   1.00
C1262  C     0.83885   0.59880   0.65375   0.00000  Uiso   1.00
C1263  C     0.89183   0.40915   0.86327   0.00000  Uiso   1.00
C1264  C     0.89770   0.62189   0.19708   0.00000  Uiso   1.00
C1265  C     0.87222   0.62291   0.15296   0.00000  Uiso   1.00
C1266  C     0.93898   0.63801   0.19707   0.00000  Uiso   1.00
C1267  C     0.90045   0.61554   0.44446   0.00000  Uiso   1.00
C1268  C     0.87363   0.78106   0.02144   0.00000  Uiso   1.00
C1269  C     0.91089   0.76217   0.02344   0.00000  Uiso   1.00
C1270  C     0.84798   0.78141   0.06362   0.00000  Uiso   1.00
C1271  C     0.95405   0.71622   0.06934   0.00000  Uiso   1.00
C1272  C     0.92033   0.74063   0.06777   0.00000  Uiso   1.00
C1273  C     0.85870   0.75917   0.10592   0.00000  Uiso   1.00
C1274  C     0.89467   0.74086   0.11041   0.00000  Uiso   1.00
C1275  C     0.93758   0.63635   0.44637   0.00000  Uiso   1.00
C1276  C     0.88096   0.78588   0.27421   0.00000  Uiso   1.00
C1277  C     0.91804   0.76729   0.27325   0.00000  Uiso   1.00
C1278  C     0.85400   0.78369   0.31533   0.00000  Uiso   1.00
C1279  C     0.95823   0.71968   0.31631   0.00000  Uiso   1.00
C1280  C     0.92563   0.74501   0.31691   0.00000  Uiso   1.00
C1281  C     0.86369   0.76354   0.35775   0.00000  Uiso   1.00
C1282  C     0.89919   0.74415   0.35884   0.00000  Uiso   1.00
C1283  C     0.87166   0.62118   0.40724   0.00000  Uiso   1.00
C1284  C     0.83516   0.60492   0.15411   0.00000  Uiso   1.00
C1285  C     0.83661   0.60045   0.41168   0.00000  Uiso   1.00
C1286  C     0.88415   0.60427   0.24007   0.00000  Uiso   1.00
C1287  C     0.89857   0.61860   0.94491   0.00000  Uiso   1.00
C1288  C     0.87680   0.78283   0.53422   0.00000  Uiso   1.00
C1289  C     0.93683   0.63806   0.69507   0.00000  Uiso   1.00
C1290  C     0.91208   0.76387   0.53447   0.00000  Uiso   1.00
C1291  C     0.84762   0.77833   0.57063   0.00000  Uiso   1.00
C1292  C     0.95255   0.71525   0.57162   0.00000  Uiso   1.00
C1293  C     0.91848   0.73914   0.57338   0.00000  Uiso   1.00
C1294  C     0.85589   0.75393   0.61102   0.00000  Uiso   1.00
C1295  C     0.89307   0.73938   0.61510   0.00000  Uiso   1.00
C1296  C     0.93732   0.63929   0.94190   0.00000  Uiso   1.00
C1297  C     0.86929   0.62416   0.90593   0.00000  Uiso   1.00
C1298  C     0.87138   0.77862   0.77578   0.00000  Uiso   1.00
C1299  C     0.90674   0.75894   0.77534   0.00000  Uiso   1.00
C1300  C     0.87379   0.61826   0.65342   0.00000  Uiso   1.00
C1301  C     0.84488   0.77548   0.81739   0.00000  Uiso   1.00
C1302  C     0.95172   0.71506   0.81914   0.00000  Uiso   1.00
C1303  C     0.91807   0.73979   0.82107   0.00000  Uiso   1.00
C1304  C     0.85631   0.75682   0.86206   0.00000  Uiso   1.00
C1305  C     0.89503   0.74172   0.86327   0.00000  Uiso   1.00
C1306  C     0.89872   0.61896   0.69591   0.00000  Uiso   1.00
C1307  C     0.80841   0.79546   0.56798   0.00000  Uiso   1.00
C1308  C     0.80672   0.79365   0.81878   0.00000  Uiso   1.00
C1309  C     0.83331   0.60686   0.91108   0.00000  Uiso   1.00
C1310  C     0.88688   0.60179   0.74083   0.00000  Uiso   1.00
C1311  C     0.81315   0.80003   0.31401   0.00000  Uiso   1.00
C1312  C     0.84933   0.91196   0.48675   0.00000  Uiso   1.00
C1313  C     0.88658   0.92575   0.48349   0.00000  Uiso   1.00
C1314  C     0.89506   0.92215   0.22854   0.00000  Uiso   1.00
C1315  C     0.85983   0.90308   0.23052   0.00000  Uiso   1.00
C1316  C     0.87316   0.95151   0.15180   0.00000  Uiso   1.00
C1317  C     0.83581   0.93504   0.15673   0.00000  Uiso   1.00
C1318  C     0.93926   0.96522   0.18747   0.00000  Uiso   1.00
C1319  C     0.90102   0.94704   0.18837   0.00000  Uiso   1.00
C1320  C     0.79733   0.88432   0.19240   0.00000  Uiso   1.00
C1321  C     0.83040   0.90968   0.19588   0.00000  Uiso   1.00
C1322  C     0.87151   0.94971   0.40141   0.00000  Uiso   1.00
C1323  C     0.83753   0.93002   0.39949   0.00000  Uiso   1.00
C1324  C     0.93575   0.96414   0.44101   0.00000  Uiso   1.00
C1325  C     0.89826   0.94558   0.44093   0.00000  Uiso   1.00
C1326  C     0.79085   0.88865   0.44283   0.00000  Uiso   1.00
C1327  C     0.82452   0.91280   0.44403   0.00000  Uiso   1.00
C1328  C     0.81052   0.80088   0.06400   0.00000  Uiso   1.00
C1329  C     0.89367   0.92503   0.99079   0.00000  Uiso   1.00
C1330  C     0.86001   0.90361   0.98981   0.00000  Uiso   1.00
C1331  C     0.89531   0.91602   0.72862   0.00000  Uiso   1.00
C1332  C     0.85774   0.89997   0.73197   0.00000  Uiso   1.00
C1333  C     0.87427   0.94703   0.65158   0.00000  Uiso   1.00
C1334  C     0.83819   0.93059   0.65519   0.00000  Uiso   1.00
C1335  C     0.94505   0.95555   0.68588   0.00000  Uiso   1.00
C1336  C     0.90471   0.93881   0.68658   0.00000  Uiso   1.00
C1337  C     0.79378   0.88376   0.69317   0.00000  Uiso   1.00
C1338  C     0.83017   0.90694   0.69406   0.00000  Uiso   1.00
C1339  C     0.87821   0.94661   0.90487   0.00000  Uiso   1.00
C1340  C     0.84313   0.92765   0.90924   0.00000  Uiso   1.00
C1341  C     0.94261   0.96346   0.94377   0.00000  Uiso   1.00
C1342  C     0.90475   0.94530   0.94691   0.00000  Uiso   1.00
C1343  C     0.80071   0.88132   0.94587   0.00000  Uiso   1.00
C1344  C     0.83378   0.90562   0.94986   0.00000  Uiso   1.00
O1345  O     0.04727   0.02011   0.27004   0.00000  Uiso   1.00
O1346  O     0.21316   0.12780   0.36177   0.00000  Uiso   1.00
O1347  O     0.21284   0.13336   0.11309   0.00000  Uiso   1.00
O1348  O     0.20476   0.19455   0.23616   0.00000  Uiso   1.00
O1349  O     0.04936   0.01751   0.10955   0.00000  Uiso   1.00
O1350  O     0.04381   0.01825   0.35943   0.00000  Uiso   1.00
O1351  O     0.22341   0.12557   0.02829   0.00000  Uiso   1.00
O1352  O     0.04454   0.02991   0.02300   0.00000  Uiso   1.00
O1353  O     0.21803   0.12442   0.27358   0.00000  Uiso   1.00
O1354  O     0.20201   0.18810   0.48697   0.00000  Uiso   1.00
O1355  O     0.20979   0.19773   0.40077   0.00000  Uiso   1.00
O1356  O     0.20796   0.19871   0.14901   0.00000  Uiso   1.00
O1357  O     0.04311   0.02810   0.76851   0.00000  Uiso   1.00
O1358  O     0.21764   0.12527   0.77640   0.00000  Uiso   1.00
O1359  O     0.20264   0.19381   0.98862   0.00000  Uiso   1.00
O1360  O     0.04713   0.01790   0.85409   0.00000  Uiso   1.00
O1361  O     0.21592   0.12314   0.61229   0.00000  Uiso   1.00
O1362  O     0.04736   0.01175   0.60350   0.00000  Uiso   1.00
O1363  O     0.21892   0.12063   0.52551   0.00000  Uiso   1.00
O1364  O     0.04041   0.02840   0.51737   0.00000  Uiso   1.00
O1365  O     0.21264   0.13196   0.86541   0.00000  Uiso   1.00
O1366  O     0.20180   0.18989   0.73665   0.00000  Uiso   1.00
O1367  O     0.20617   0.19387   0.64530   0.00000  Uiso   1.00
O1368  O     0.20536   0.19792   0.89924   0.00000  Uiso   1.00
O1369  O     0.04494   0.35983   0.27435   0.00000  Uiso   1.00
O1370  O     0.04614   0.36002   0.11129   0.00000  Uiso   1.00
O1371  O     0.04315   0.35817   0.36497   0.00000  Uiso   1.00
O1372  O     0.03264   0.30184   0.49389   0.00000  Uiso   1.00
O1373  O     0.03667   0.30073   0.40574   0.00000  Uiso   1.00
O1374  O     0.04278   0.36524   0.02349   0.00000  Uiso   1.00
O1375  O     0.03427   0.29818   0.23636   0.00000  Uiso   1.00
O1376  O     0.03297   0.29578   0.14787   0.00000  Uiso   1.00
O1377  O     0.04297   0.36556   0.77096   0.00000  Uiso   1.00
O1378  O     0.03606   0.30440   0.73994   0.00000  Uiso   1.00
O1379  O     0.04870   0.35399   0.85867   0.00000  Uiso   1.00
O1380  O     0.03398   0.29730   0.90227   0.00000  Uiso   1.00
O1381  O     0.03835   0.36470   0.52513   0.00000  Uiso   1.00
O1382  O     0.03179   0.29710   0.65320   0.00000  Uiso   1.00
O1383  O     0.04440   0.35421   0.61140   0.00000  Uiso   1.00
O1384  O     0.03457   0.30252   0.98904   0.00000  Uiso   1.00
O1385  O     0.21585   0.46859   0.11052   0.00000  Uiso   1.00
O1386  O     0.20942   0.46794   0.28162   0.00000  Uiso   1.00
O1387  O     0.20317   0.53091   0.39844   0.00000  Uiso   1.00
O1388  O     0.21143   0.46676   0.36976   0.00000  Uiso   1.00
O1389  O     0.20265   0.52605   0.23725   0.00000  Uiso   1.00
O1390  O     0.21697   0.46827   0.02146   0.00000  Uiso   1.00
O1391  O     0.20621   0.53123   0.14933   0.00000  Uiso   1.00
O1392  O     0.19804   0.52004   0.48453   0.00000  Uiso   1.00
O1393  O     0.21931   0.45788   0.78057   0.00000  Uiso   1.00
O1394  O     0.20005   0.51761   0.74015   0.00000  Uiso   1.00
O1395  O     0.21700   0.46539   0.86777   0.00000  Uiso   1.00
O1396  O     0.20735   0.52266   0.90118   0.00000  Uiso   1.00
O1397  O     0.21368   0.46429   0.53044   0.00000  Uiso   1.00
O1398  O     0.20370   0.52735   0.65344   0.00000  Uiso   1.00
O1399  O     0.20818   0.46980   0.61821   0.00000  Uiso   1.00
O1400  O     0.20576   0.52418   0.98881   0.00000  Uiso   1.00
O1401  O     0.22031   0.79656   0.37014   0.00000  Uiso   1.00
O1402  O     0.04719   0.69612   0.27728   0.00000  Uiso   1.00
O1403  O     0.03049   0.63037   0.48863   0.00000  Uiso   1.00
O1404  O     0.04698   0.69246   0.36492   0.00000  Uiso   1.00
O1405  O     0.02673   0.62181   0.15439   0.00000  Uiso   1.00
O1406  O     0.03462   0.63182   0.24044   0.00000  Uiso   1.00
O1407  O     0.02998   0.62827   0.40149   0.00000  Uiso   1.00
O1408  O     0.04701   0.69179   0.11497   0.00000  Uiso   1.00
O1409  O     0.04348   0.69392   0.02794   0.00000  Uiso   1.00
O1410  O     0.22065   0.79199   0.02693   0.00000  Uiso   1.00
O1411  O     0.22068   0.79284   0.28244   0.00000  Uiso   1.00
O1412  O     0.22147   0.79607   0.11531   0.00000  Uiso   1.00
O1413  O     0.03282   0.62545   0.90011   0.00000  Uiso   1.00
O1414  O     0.04264   0.69453   0.77793   0.00000  Uiso   1.00
O1415  O     0.04496   0.69367   0.86526   0.00000  Uiso   1.00
O1416  O     0.21598   0.79267   0.77462   0.00000  Uiso   1.00
O1417  O     0.22414   0.78865   0.61260   0.00000  Uiso   1.00
O1418  O     0.02892   0.62615   0.65661   0.00000  Uiso   1.00
O1419  O     0.03168   0.62734   0.74409   0.00000  Uiso   1.00
O1420  O     0.04106   0.69896   0.52888   0.00000  Uiso   1.00
O1421  O     0.04956   0.68950   0.61560   0.00000  Uiso   1.00
O1422  O     0.03515   0.62959   0.98739   0.00000  Uiso   1.00
O1423  O     0.21675   0.79241   0.52309   0.00000  Uiso   1.00
O1424  O     0.21923   0.79433   0.86217   0.00000  Uiso   1.00
O1425  O     0.03420   0.96714   0.48560   0.00000  Uiso   1.00
O1426  O     0.20445   0.85581   0.48877   0.00000  Uiso   1.00
O1427  O     0.03587   0.96174   0.14843   0.00000  Uiso   1.00
O1428  O     0.21009   0.86398   0.15081   0.00000  Uiso   1.00
O1429  O     0.03239   0.96392   0.23635   0.00000  Uiso   1.00
O1430  O     0.20675   0.86142   0.23859   0.00000  Uiso   1.00
O1431  O     0.03641   0.96325   0.39648   0.00000  Uiso   1.00
O1432  O     0.21232   0.86616   0.40363   0.00000  Uiso   1.00
O1433  O     0.04150   0.96947   0.98281   0.00000  Uiso   1.00
O1434  O     0.03287   0.95759   0.64672   0.00000  Uiso   1.00
O1435  O     0.20667   0.85566   0.64594   0.00000  Uiso   1.00
O1436  O     0.03930   0.96655   0.73325   0.00000  Uiso   1.00
O1437  O     0.20734   0.86016   0.73375   0.00000  Uiso   1.00
O1438  O     0.20634   0.85759   0.98544   0.00000  Uiso   1.00
O1439  O     0.03478   0.95676   0.89717   0.00000  Uiso   1.00
O1440  O     0.21475   0.86439   0.89891   0.00000  Uiso   1.00
O1441  O     0.29442   0.14153   0.27434   0.00000  Uiso   1.00
O1442  O     0.29281   0.13947   0.36346   0.00000  Uiso   1.00
O1443  O     0.46728   0.03262   0.36394   0.00000  Uiso   1.00
O1444  O     0.46791   0.03846   0.27599   0.00000  Uiso   1.00
O1445  O     0.29285   0.14211   0.11182   0.00000  Uiso   1.00
O1446  O     0.47017   0.04647   0.03144   0.00000  Uiso   1.00
O1447  O     0.29664   0.14741   0.02478   0.00000  Uiso   1.00
O1448  O     0.46546   0.03714   0.11856   0.00000  Uiso   1.00
O1449  O     0.28582   0.19413   0.48907   0.00000  Uiso   1.00
O1450  O     0.28700   0.19865   0.40252   0.00000  Uiso   1.00
O1451  O     0.46792   0.04322   0.77501   0.00000  Uiso   1.00
O1452  O     0.29346   0.13635   0.61042   0.00000  Uiso   1.00
O1453  O     0.29656   0.14581   0.86214   0.00000  Uiso   1.00
O1454  O     0.29167   0.13810   0.77482   0.00000  Uiso   1.00
O1455  O     0.46807   0.03925   0.86095   0.00000  Uiso   1.00
O1456  O     0.46991   0.03657   0.62035   0.00000  Uiso   1.00
O1457  O     0.46950   0.03865   0.53110   0.00000  Uiso   1.00
O1458  O     0.29267   0.13682   0.52388   0.00000  Uiso   1.00
O1459  O     0.28361   0.19808   0.65045   0.00000  Uiso   1.00
O1460  O     0.46274   0.36434   0.36121   0.00000  Uiso   1.00
O1461  O     0.28359   0.20483   0.15310   0.00000  Uiso   1.00
O1462  O     0.45934   0.30210   0.39978   0.00000  Uiso   1.00
O1463  O     0.45501   0.31609   0.23520   0.00000  Uiso   1.00
O1464  O     0.46661   0.37205   0.27380   0.00000  Uiso   1.00
O1465  O     0.45941   0.30368   0.14646   0.00000  Uiso   1.00
O1466  O     0.46306   0.36847   0.02730   0.00000  Uiso   1.00
O1467  O     0.46250   0.36258   0.11582   0.00000  Uiso   1.00
O1468  O     0.45380   0.31175   0.48400   0.00000  Uiso   1.00
O1469  O     0.28531   0.20242   0.24083   0.00000  Uiso   1.00
O1470  O     0.27953   0.20965   0.89973   0.00000  Uiso   1.00
O1471  O     0.46439   0.37051   0.76982   0.00000  Uiso   1.00
O1472  O     0.45596   0.30508   0.73400   0.00000  Uiso   1.00
O1473  O     0.46606   0.36402   0.85952   0.00000  Uiso   1.00
O1474  O     0.45646   0.30522   0.64697   0.00000  Uiso   1.00
O1475  O     0.46714   0.37144   0.52874   0.00000  Uiso   1.00
O1476  O     0.46481   0.36375   0.61590   0.00000  Uiso   1.00
O1477  O     0.45960   0.30286   0.89824   0.00000  Uiso   1.00
O1478  O     0.45259   0.31156   0.98616   0.00000  Uiso   1.00
O1479  O     0.28232   0.20333   0.98628   0.00000  Uiso   1.00
O1480  O     0.28183   0.20143   0.73707   0.00000  Uiso   1.00
O1481  O     0.28128   0.53852   0.49171   0.00000  Uiso   1.00
O1482  O     0.29524   0.48083   0.36268   0.00000  Uiso   1.00
O1483  O     0.29784   0.47677   0.11902   0.00000  Uiso   1.00
O1484  O     0.28014   0.54289   0.40541   0.00000  Uiso   1.00
O1485  O     0.28509   0.53578   0.24273   0.00000  Uiso   1.00
O1486  O     0.28140   0.54351   0.15417   0.00000  Uiso   1.00
O1487  O     0.28479   0.46726   0.27957   0.00000  Uiso   1.00
O1488  O     0.29360   0.47203   0.02943   0.00000  Uiso   1.00
O1489  O     0.28249   0.54257   0.98938   0.00000  Uiso   1.00
O1490  O     0.29878   0.47518   0.86268   0.00000  Uiso   1.00
O1491  O     0.28880   0.53015   0.73654   0.00000  Uiso   1.00
O1492  O     0.27719   0.54371   0.65143   0.00000  Uiso   1.00
O1493  O     0.28104   0.54476   0.90182   0.00000  Uiso   1.00
O1494  O     0.29208   0.47523   0.61479   0.00000  Uiso   1.00
O1495  O     0.29074   0.47064   0.52588   0.00000  Uiso   1.00
O1496  O     0.29109   0.46475   0.77935   0.00000  Uiso   1.00
O1497  O     0.46235   0.69899   0.36208   0.00000  Uiso   1.00
O1498  O     0.47247   0.71300   0.27713   0.00000  Uiso   1.00
O1499  O     0.46950   0.70771   0.02375   0.00000  Uiso   1.00
O1500  O     0.45311   0.64576   0.48225   0.00000  Uiso   1.00
O1501  O     0.46149   0.69578   0.11188   0.00000  Uiso   1.00
O1502  O     0.45303   0.64212   0.39442   0.00000  Uiso   1.00
O1503  O     0.45596   0.63642   0.15234   0.00000  Uiso   1.00
O1504  O     0.45211   0.65047   0.23916   0.00000  Uiso   1.00
O1505  O     0.46882   0.70102   0.61030   0.00000  Uiso   1.00
O1506  O     0.47192   0.70115   0.86145   0.00000  Uiso   1.00
O1507  O     0.45220   0.65164   0.98573   0.00000  Uiso   1.00
O1508  O     0.46123   0.69799   0.77472   0.00000  Uiso   1.00
O1509  O     0.45608   0.64467   0.64505   0.00000  Uiso   1.00
O1510  O     0.46641   0.70286   0.52347   0.00000  Uiso   1.00
O1511  O     0.45280   0.64650   0.73370   0.00000  Uiso   1.00
O1512  O     0.45804   0.64255   0.89973   0.00000  Uiso   1.00
O1513  O     0.29705   0.80566   0.27423   0.00000  Uiso   1.00
O1514  O     0.29660   0.81113   0.11353   0.00000  Uiso   1.00
O1515  O     0.45984   0.96492   0.40439   0.00000  Uiso   1.00
O1516  O     0.28514   0.86724   0.49472   0.00000  Uiso   1.00
O1517  O     0.45731   0.96911   0.49354   0.00000  Uiso   1.00
O1518  O     0.28605   0.86844   0.23777   0.00000  Uiso   1.00
O1519  O     0.28475   0.87276   0.40461   0.00000  Uiso   1.00
O1520  O     0.45723   0.97645   0.23930   0.00000  Uiso   1.00
O1521  O     0.28719   0.87004   0.15010   0.00000  Uiso   1.00
O1522  O     0.46196   0.96584   0.15286   0.00000  Uiso   1.00
O1523  O     0.29923   0.81471   0.36083   0.00000  Uiso   1.00
O1524  O     0.29735   0.80695   0.02627   0.00000  Uiso   1.00
O1525  O     0.28877   0.86351   0.90401   0.00000  Uiso   1.00
O1526  O     0.29815   0.80820   0.61629   0.00000  Uiso   1.00
O1527  O     0.29880   0.80960   0.85596   0.00000  Uiso   1.00
O1528  O     0.29192   0.80242   0.52964   0.00000  Uiso   1.00
O1529  O     0.45578   0.97403   0.90408   0.00000  Uiso   1.00
O1530  O     0.28646   0.86548   0.99138   0.00000  Uiso   1.00
O1531  O     0.28355   0.86932   0.73920   0.00000  Uiso   1.00
O1532  O     0.45234   0.98012   0.73868   0.00000  Uiso   1.00
O1533  O     0.28412   0.86847   0.65014   0.00000  Uiso   1.00
O1534  O     0.45856   0.96891   0.65114   0.00000  Uiso   1.00
O1535  O     0.45239   0.97754   0.99274   0.00000  Uiso   1.00
O1536  O     0.29789   0.80903   0.76812   0.00000  Uiso   1.00
O1537  O     0.71970   0.13169   0.36758   0.00000  Uiso   1.00
O1538  O     0.54467   0.02662   0.28078   0.00000  Uiso   1.00
O1539  O     0.71144   0.19682   0.15178   0.00000  Uiso   1.00
O1540  O     0.70512   0.18698   0.24002   0.00000  Uiso   1.00
O1541  O     0.71731   0.12436   0.11735   0.00000  Uiso   1.00
O1542  O     0.54760   0.01981   0.36834   0.00000  Uiso   1.00
O1543  O     0.54659   0.02106   0.11215   0.00000  Uiso   1.00
O1544  O     0.72418   0.12495   0.28049   0.00000  Uiso   1.00
O1545  O     0.72074   0.12016   0.02856   0.00000  Uiso   1.00
O1546  O     0.54322   0.02993   0.02454   0.00000  Uiso   1.00
O1547  O     0.70488   0.19098   0.48890   0.00000  Uiso   1.00
O1548  O     0.71025   0.19644   0.39918   0.00000  Uiso   1.00
O1549  O     0.72750   0.12202   0.86465   0.00000  Uiso   1.00
O1550  O     0.71735   0.12349   0.77697   0.00000  Uiso   1.00
O1551  O     0.71749   0.12869   0.61512   0.00000  Uiso   1.00
O1552  O     0.54863   0.01846   0.61376   0.00000  Uiso   1.00
O1553  O     0.71929   0.12419   0.52814   0.00000  Uiso   1.00
O1554  O     0.54567   0.02643   0.52720   0.00000  Uiso   1.00
O1555  O     0.54527   0.02629   0.86389   0.00000  Uiso   1.00
O1556  O     0.54384   0.02985   0.77659   0.00000  Uiso   1.00
O1557  O     0.70473   0.18968   0.73426   0.00000  Uiso   1.00
O1558  O     0.70472   0.19085   0.98766   0.00000  Uiso   1.00
O1559  O     0.70642   0.18969   0.89753   0.00000  Uiso   1.00
O1560  O     0.54144   0.36918   0.27824   0.00000  Uiso   1.00
O1561  O     0.54939   0.35532   0.36446   0.00000  Uiso   1.00
O1562  O     0.53573   0.29959   0.48593   0.00000  Uiso   1.00
O1563  O     0.53248   0.29279   0.39790   0.00000  Uiso   1.00
O1564  O     0.54215   0.36360   0.02059   0.00000  Uiso   1.00
O1565  O     0.54507   0.36110   0.10757   0.00000  Uiso   1.00
O1566  O     0.53711   0.29870   0.23875   0.00000  Uiso   1.00
O1567  O     0.53698   0.29435   0.14968   0.00000  Uiso   1.00
O1568  O     0.53843   0.36839   0.77389   0.00000  Uiso   1.00
O1569  O     0.53442   0.29039   0.65331   0.00000  Uiso   1.00
O1570  O     0.54669   0.35830   0.85914   0.00000  Uiso   1.00
O1571  O     0.53926   0.30112   0.74033   0.00000  Uiso   1.00
O1572  O     0.53754   0.29473   0.90010   0.00000  Uiso   1.00
O1573  O     0.54170   0.36641   0.52302   0.00000  Uiso   1.00
O1574  O     0.52992   0.29338   0.98967   0.00000  Uiso   1.00
O1575  O     0.54562   0.35562   0.61109   0.00000  Uiso   1.00
O1576  O     0.71589   0.20062   0.64882   0.00000  Uiso   1.00
O1577  O     0.71082   0.47129   0.11281   0.00000  Uiso   1.00
O1578  O     0.71629   0.46686   0.27763   0.00000  Uiso   1.00
O1579  O     0.69864   0.52169   0.48221   0.00000  Uiso   1.00
O1580  O     0.70227   0.52619   0.39303   0.00000  Uiso   1.00
O1581  O     0.70113   0.52743   0.23340   0.00000  Uiso   1.00
O1582  O     0.71109   0.46864   0.02485   0.00000  Uiso   1.00
O1583  O     0.71560   0.46820   0.36555   0.00000  Uiso   1.00
O1584  O     0.70456   0.53133   0.14678   0.00000  Uiso   1.00
O1585  O     0.71887   0.46192   0.78078   0.00000  Uiso   1.00
O1586  O     0.70167   0.52957   0.90191   0.00000  Uiso   1.00
O1587  O     0.71801   0.46488   0.61469   0.00000  Uiso   1.00
O1588  O     0.71309   0.46364   0.52682   0.00000  Uiso   1.00
O1589  O     0.70236   0.52148   0.98731   0.00000  Uiso   1.00
O1590  O     0.70174   0.52278   0.73636   0.00000  Uiso   1.00
O1591  O     0.70073   0.52438   0.64772   0.00000  Uiso   1.00
O1592  O     0.71277   0.47132   0.86871   0.00000  Uiso   1.00
O1593  O     0.71579   0.79633   0.02686   0.00000  Uiso   1.00
O1594  O     0.54111   0.69898   0.27633   0.00000  Uiso   1.00
O1595  O     0.54110   0.69329   0.36323   0.00000  Uiso   1.00
O1596  O     0.52811   0.62356   0.48548   0.00000  Uiso   1.00
O1597  O     0.54480   0.69712   0.02615   0.00000  Uiso   1.00
O1598  O     0.52448   0.61885   0.15456   0.00000  Uiso   1.00
O1599  O     0.53340   0.63461   0.23862   0.00000  Uiso   1.00
O1600  O     0.52740   0.62289   0.39598   0.00000  Uiso   1.00
O1601  O     0.54825   0.68457   0.11228   0.00000  Uiso   1.00
O1602  O     0.72282   0.78968   0.27670   0.00000  Uiso   1.00
O1603  O     0.54489   0.69299   0.77351   0.00000  Uiso   1.00
O1604  O     0.54476   0.69350   0.51803   0.00000  Uiso   1.00
O1605  O     0.52967   0.63046   0.99013   0.00000  Uiso   1.00
O1606  O     0.71430   0.79695   0.77696   0.00000  Uiso   1.00
O1607  O     0.53243   0.62402   0.65094   0.00000  Uiso   1.00
O1608  O     0.52705   0.62231   0.73808   0.00000  Uiso   1.00
O1609  O     0.53096   0.62342   0.90257   0.00000  Uiso   1.00
O1610  O     0.54668   0.69030   0.60918   0.00000  Uiso   1.00
O1611  O     0.54796   0.68837   0.86203   0.00000  Uiso   1.00
O1612  O     0.71616   0.79546   0.52309   0.00000  Uiso   1.00
O1613  O     0.53582   0.96628   0.49012   0.00000  Uiso   1.00
O1614  O     0.53500   0.96148   0.15100   0.00000  Uiso   1.00
O1615  O     0.71069   0.86694   0.14666   0.00000  Uiso   1.00
O1616  O     0.53705   0.96533   0.23890   0.00000  Uiso   1.00
O1617  O     0.70266   0.84938   0.22879   0.00000  Uiso   1.00
O1618  O     0.70273   0.85572   0.48842   0.00000  Uiso   1.00
O1619  O     0.53025   0.95724   0.40421   0.00000  Uiso   1.00
O1620  O     0.70821   0.86378   0.40176   0.00000  Uiso   1.00
O1621  O     0.71411   0.80405   0.11386   0.00000  Uiso   1.00
O1622  O     0.71536   0.80078   0.36330   0.00000  Uiso   1.00
O1623  O     0.70340   0.85678   0.98740   0.00000  Uiso   1.00
O1624  O     0.53092   0.95846   0.65516   0.00000  Uiso   1.00
O1625  O     0.70113   0.85947   0.64775   0.00000  Uiso   1.00
O1626  O     0.53439   0.96459   0.74266   0.00000  Uiso   1.00
O1627  O     0.70181   0.85368   0.73598   0.00000  Uiso   1.00
O1628  O     0.53440   0.97170   0.99087   0.00000  Uiso   1.00
O1629  O     0.53309   0.96457   0.90218   0.00000  Uiso   1.00
O1630  O     0.70746   0.86379   0.89976   0.00000  Uiso   1.00
O1631  O     0.70863   0.80465   0.61038   0.00000  Uiso   1.00
O1632  O     0.71284   0.80297   0.86388   0.00000  Uiso   1.00
O1633  O     0.79352   0.13875   0.11149   0.00000  Uiso   1.00
O1634  O     0.96105   0.02717   0.35704   0.00000  Uiso   1.00
O1635  O     0.79962   0.14430   0.36319   0.00000  Uiso   1.00
O1636  O     0.97441   0.04386   0.27379   0.00000  Uiso   1.00
O1637  O     0.79773   0.14162   0.27447   0.00000  Uiso   1.00
O1638  O     0.96998   0.04195   0.02032   0.00000  Uiso   1.00
O1639  O     0.79617   0.14361   0.02613   0.00000  Uiso   1.00
O1640  O     0.97051   0.04016   0.10896   0.00000  Uiso   1.00
O1641  O     0.79211   0.19626   0.14661   0.00000  Uiso   1.00
O1642  O     0.96878   0.03465   0.85768   0.00000  Uiso   1.00
O1643  O     0.79078   0.19592   0.73827   0.00000  Uiso   1.00
O1644  O     0.79401   0.13402   0.77469   0.00000  Uiso   1.00
O1645  O     0.79996   0.14699   0.86248   0.00000  Uiso   1.00
O1646  O     0.80079   0.14367   0.61278   0.00000  Uiso   1.00
O1647  O     0.96858   0.03684   0.76821   0.00000  Uiso   1.00
O1648  O     0.96798   0.04131   0.52458   0.00000  Uiso   1.00
O1649  O     0.79437   0.14147   0.52512   0.00000  Uiso   1.00
O1650  O     0.96553   0.03301   0.61037   0.00000  Uiso   1.00
O1651  O     0.79062   0.19867   0.65032   0.00000  Uiso   1.00
O1652  O     0.78560   0.19680   0.98606   0.00000  Uiso   1.00
O1653  O     0.78867   0.20136   0.40447   0.00000  Uiso   1.00
O1654  O     0.96069   0.29945   0.40485   0.00000  Uiso   1.00
O1655  O     0.95505   0.30818   0.23287   0.00000  Uiso   1.00
O1656  O     0.96431   0.36979   0.36616   0.00000  Uiso   1.00
O1657  O     0.96585   0.37257   0.27835   0.00000  Uiso   1.00
O1658  O     0.95923   0.30603   0.14588   0.00000  Uiso   1.00
O1659  O     0.96735   0.37606   0.02589   0.00000  Uiso   1.00
O1660  O     0.96348   0.37228   0.11186   0.00000  Uiso   1.00
O1661  O     0.94820   0.31689   0.48780   0.00000  Uiso   1.00
O1662  O     0.78234   0.20155   0.49329   0.00000  Uiso   1.00
O1663  O     0.78406   0.20176   0.23178   0.00000  Uiso   1.00
O1664  O     0.96714   0.37955   0.77695   0.00000  Uiso   1.00
O1665  O     0.95181   0.31386   0.73577   0.00000  Uiso   1.00
O1666  O     0.95998   0.29982   0.89561   0.00000  Uiso   1.00
O1667  O     0.96504   0.36914   0.86380   0.00000  Uiso   1.00
O1668  O     0.95847   0.30266   0.65117   0.00000  Uiso   1.00
O1669  O     0.97142   0.38230   0.52844   0.00000  Uiso   1.00
O1670  O     0.96458   0.37163   0.61475   0.00000  Uiso   1.00
O1671  O     0.95548   0.30917   0.98397   0.00000  Uiso   1.00
O1672  O     0.77897   0.20577   0.89995   0.00000  Uiso   1.00
O1673  O     0.79335   0.47769   0.36069   0.00000  Uiso   1.00
O1674  O     0.78530   0.46803   0.02687   0.00000  Uiso   1.00
O1675  O     0.77879   0.54330   0.23818   0.00000  Uiso   1.00
O1676  O     0.77755   0.54921   0.14886   0.00000  Uiso   1.00
O1677  O     0.79480   0.48364   0.10941   0.00000  Uiso   1.00
O1678  O     0.78031   0.54296   0.40488   0.00000  Uiso   1.00
O1679  O     0.78074   0.53964   0.49488   0.00000  Uiso   1.00
O1680  O     0.79101   0.47527   0.27336   0.00000  Uiso   1.00
O1681  O     0.78767   0.47110   0.52618   0.00000  Uiso   1.00
O1682  O     0.79414   0.48027   0.86288   0.00000  Uiso   1.00
O1683  O     0.79447   0.47975   0.61144   0.00000  Uiso   1.00
O1684  O     0.77553   0.54729   0.65488   0.00000  Uiso   1.00
O1685  O     0.78304   0.53962   0.74309   0.00000  Uiso   1.00
O1686  O     0.77599   0.54983   0.90479   0.00000  Uiso   1.00
O1687  O     0.79058   0.47315   0.77687   0.00000  Uiso   1.00
O1688  O     0.78282   0.53981   0.99181   0.00000  Uiso   1.00
O1689  O     0.97076   0.70833   0.36181   0.00000  Uiso   1.00
O1690  O     0.96969   0.70716   0.27256   0.00000  Uiso   1.00
O1691  O     0.95151   0.64597   0.48970   0.00000  Uiso   1.00
O1692  O     0.96893   0.70572   0.02550   0.00000  Uiso   1.00
O1693  O     0.96315   0.70158   0.11319   0.00000  Uiso   1.00
O1694  O     0.95620   0.64408   0.40335   0.00000  Uiso   1.00
O1695  O     0.95471   0.64275   0.15254   0.00000  Uiso   1.00
O1696  O     0.95625   0.64669   0.24106   0.00000  Uiso   1.00
O1697  O     0.78671   0.79843   0.02437   0.00000  Uiso   1.00
O1698  O     0.79003   0.79845   0.77541   0.00000  Uiso   1.00
O1699  O     0.96502   0.70016   0.86148   0.00000  Uiso   1.00
O1700  O     0.95651   0.64115   0.65105   0.00000  Uiso   1.00
O1701  O     0.96476   0.70331   0.77377   0.00000  Uiso   1.00
O1702  O     0.96942   0.70476   0.61442   0.00000  Uiso   1.00
O1703  O     0.96332   0.70264   0.52648   0.00000  Uiso   1.00
O1704  O     0.95549   0.64650   0.98556   0.00000  Uiso   1.00
O1705  O     0.95408   0.64300   0.89802   0.00000  Uiso   1.00
O1706  O     0.95230   0.64640   0.73948   0.00000  Uiso   1.00
O1707  O     0.94799   0.97774   0.48509   0.00000  Uiso   1.00
O1708  O     0.95705   0.96118   0.39781   0.00000  Uiso   1.00
O1709  O     0.78391   0.87410   0.39910   0.00000  Uiso   1.00
O1710  O     0.78017   0.87339   0.48470   0.00000  Uiso   1.00
O1711  O     0.78675   0.86580   0.23413   0.00000  Uiso   1.00
O1712  O     0.95245   0.97779   0.23019   0.00000  Uiso   1.00
O1713  O     0.78069   0.87885   0.14727   0.00000  Uiso   1.00
O1714  O     0.95828   0.96791   0.14293   0.00000  Uiso   1.00
O1715  O     0.79904   0.81473   0.35647   0.00000  Uiso   1.00
O1716  O     0.79947   0.81600   0.10762   0.00000  Uiso   1.00
O1717  O     0.79313   0.80078   0.27041   0.00000  Uiso   1.00
O1718  O     0.78586   0.87584   0.90152   0.00000  Uiso   1.00
O1719  O     0.95803   0.96822   0.89926   0.00000  Uiso   1.00
O1720  O     0.78633   0.86553   0.73621   0.00000  Uiso   1.00
O1721  O     0.96170   0.97087   0.98566   0.00000  Uiso   1.00
O1722  O     0.96063   0.96727   0.73018   0.00000  Uiso   1.00
O1723  O     0.77701   0.87647   0.64801   0.00000  Uiso   1.00
O1724  O     0.96035   0.96151   0.64168   0.00000  Uiso   1.00
O1725  O     0.78931   0.86433   0.98740   0.00000  Uiso   1.00
O1726  O     0.79462   0.81098   0.86172   0.00000  Uiso   1.00
O1727  O     0.79094   0.80289   0.61182   0.00000  Uiso   1.00
O1728  O     0.79515   0.80506   0.52372   0.00000  Uiso   1.00
O1729  O     0.23976   0.19220   0.06634   0.00000  Uiso   1.00
O1730  O     0.24387   0.14385   0.19438   0.00000  Uiso   1.00
O1731  O     0.23944   0.18668   0.32163   0.00000  Uiso   1.00
O1732  O     0.24296   0.13776   0.44179   0.00000  Uiso   1.00
O1733  O     0.23609   0.18253   0.56515   0.00000  Uiso   1.00
O1734  O     0.24796   0.14676   0.94030   0.00000  Uiso   1.00
O1735  O     0.23606   0.18764   0.81415   0.00000  Uiso   1.00
O1736  O     0.24522   0.14060   0.69147   0.00000  Uiso   1.00
O1737  O     0.00037   0.36002   0.19207   0.00000  Uiso   1.00
O1738  O     0.24838   0.52605   0.32074   0.00000  Uiso   1.00
O1739  O     0.01301   0.68850   0.44474   0.00000  Uiso   1.00
O1740  O     0.00262   0.64377   0.06876   0.00000  Uiso   1.00
O1741  O     0.01067   0.68727   0.19088   0.00000  Uiso   1.00
O1742  O     0.00416   0.64574   0.32087   0.00000  Uiso   1.00
O1743  O     0.01338   0.68546   0.69482   0.00000  Uiso   1.00
O1744  O     0.00704   0.64433   0.57093   0.00000  Uiso   1.00
O1745  O     0.01138   0.68975   0.94237   0.00000  Uiso   1.00
O1746  O     0.00473   0.64149   0.81940   0.00000  Uiso   1.00
O1747  O     0.24316   0.85498   0.31789   0.00000  Uiso   1.00
O1748  O     0.23857   0.85347   0.07085   0.00000  Uiso   1.00
O1749  O     0.24724   0.80935   0.19385   0.00000  Uiso   1.00
O1750  O     0.24638   0.80982   0.69343   0.00000  Uiso   1.00
O1751  O     0.23733   0.85288   0.56695   0.00000  Uiso   1.00
O1752  O     0.23905   0.85416   0.81888   0.00000  Uiso   1.00
O1753  O     0.24884   0.80842   0.94290   0.00000  Uiso   1.00
O1754  O     0.49162   0.02125   0.44304   0.00000  Uiso   1.00
O1755  O     0.49860   0.02554   0.19341   0.00000  Uiso   1.00
O1756  O     0.49583   0.02758   0.94271   0.00000  Uiso   1.00
O1757  O     0.25662   0.48163   0.19633   0.00000  Uiso   1.00
O1758  O     0.25895   0.47847   0.44454   0.00000  Uiso   1.00
O1759  O     0.25521   0.52716   0.07083   0.00000  Uiso   1.00
O1760  O     0.25404   0.52217   0.81726   0.00000  Uiso   1.00
O1761  O     0.25700   0.47494   0.69140   0.00000  Uiso   1.00
O1762  O     0.26731   0.48291   0.94381   0.00000  Uiso   1.00
O1763  O     0.25071   0.52353   0.56408   0.00000  Uiso   1.00
O1764  O     0.49991   0.64197   0.06588   0.00000  Uiso   1.00
O1765  O     0.48979   0.98091   0.06819   0.00000  Uiso   1.00
O1766  O     0.48879   0.97690   0.31736   0.00000  Uiso   1.00
O1767  O     0.25445   0.81107   0.43981   0.00000  Uiso   1.00
O1768  O     0.48903   0.97988   0.57078   0.00000  Uiso   1.00
O1769  O     0.48858   0.97925   0.81957   0.00000  Uiso   1.00
O1770  O     0.74481   0.18840   0.31558   0.00000  Uiso   1.00
O1771  O     0.73894   0.18419   0.06793   0.00000  Uiso   1.00
O1772  O     0.74829   0.14287   0.44286   0.00000  Uiso   1.00
O1773  O     0.50106   0.02414   0.69649   0.00000  Uiso   1.00
O1774  O     0.73617   0.18658   0.56876   0.00000  Uiso   1.00
O1775  O     0.73698   0.18485   0.81620   0.00000  Uiso   1.00
O1776  O     0.74779   0.13957   0.69199   0.00000  Uiso   1.00
O1777  O     0.74487   0.14040   0.94377   0.00000  Uiso   1.00
O1778  O     0.50484   0.31230   0.31520   0.00000  Uiso   1.00
O1779  O     0.50498   0.35784   0.44182   0.00000  Uiso   1.00
O1780  O     0.51392   0.35630   0.19324   0.00000  Uiso   1.00
O1781  O     0.50583   0.31149   0.06723   0.00000  Uiso   1.00
O1782  O     0.50786   0.35253   0.69057   0.00000  Uiso   1.00
O1783  O     0.50696   0.30782   0.56740   0.00000  Uiso   1.00
O1784  O     0.50715   0.35848   0.94125   0.00000  Uiso   1.00
O1785  O     0.50372   0.31139   0.81777   0.00000  Uiso   1.00
O1786  O     0.50764   0.69045   0.18918   0.00000  Uiso   1.00
O1787  O     0.51382   0.68445   0.43912   0.00000  Uiso   1.00
O1788  O     0.50131   0.64340   0.31518   0.00000  Uiso   1.00
O1789  O     0.51941   0.68543   0.94174   0.00000  Uiso   1.00
O1790  O     0.51425   0.68641   0.69060   0.00000  Uiso   1.00
O1791  O     0.50534   0.64211   0.81700   0.00000  Uiso   1.00
O1792  O     0.50492   0.64132   0.56530   0.00000  Uiso   1.00
O1793  O     0.74633   0.85621   0.31289   0.00000  Uiso   1.00
O1794  O     0.99538   0.02301   0.18673   0.00000  Uiso   1.00
O1795  O     0.98958   0.02104   0.43674   0.00000  Uiso   1.00
O1796  O     0.75007   0.14192   0.19237   0.00000  Uiso   1.00
O1797  O     0.99623   0.02188   0.93558   0.00000  Uiso   1.00
O1798  O     0.99290   0.01909   0.68441   0.00000  Uiso   1.00
O1799  O     0.98990   0.31486   0.06660   0.00000  Uiso   1.00
O1800  O     0.99309   0.35688   0.44335   0.00000  Uiso   1.00
O1801  O     0.99499   0.31247   0.31759   0.00000  Uiso   1.00
O1802  O     0.98896   0.31349   0.81832   0.00000  Uiso   1.00
O1803  O     0.99189   0.35782   0.69028   0.00000  Uiso   1.00
O1804  O     0.98420   0.31451   0.56743   0.00000  Uiso   1.00
O1805  O     0.99542   0.35900   0.93816   0.00000  Uiso   1.00
O1806  O     0.75753   0.48444   0.44380   0.00000  Uiso   1.00
O1807  O     0.76422   0.48537   0.19122   0.00000  Uiso   1.00
O1808  O     0.75329   0.52768   0.31794   0.00000  Uiso   1.00
O1809  O     0.75186   0.52941   0.06742   0.00000  Uiso   1.00
O1810  O     0.75087   0.52728   0.56817   0.00000  Uiso   1.00
O1811  O     0.76343   0.48507   0.94113   0.00000  Uiso   1.00
O1812  O     0.76102   0.48237   0.69563   0.00000  Uiso   1.00
O1813  O     0.75247   0.52789   0.81715   0.00000  Uiso   1.00
O1814  O     0.75485   0.86020   0.06274   0.00000  Uiso   1.00
O1815  O     0.98704   0.97654   0.31478   0.00000  Uiso   1.00
O1816  O     0.99292   0.97882   0.06171   0.00000  Uiso   1.00
O1817  O     0.75899   0.81350   0.18789   0.00000  Uiso   1.00
O1818  O     0.75606   0.81307   0.43776   0.00000  Uiso   1.00
O1819  O     0.75500   0.85663   0.56312   0.00000  Uiso   1.00
O1820  O     0.75706   0.81550   0.94111   0.00000  Uiso   1.00
O1821  O     0.98664   0.97610   0.56188   0.00000  Uiso   1.00
O1822  O     0.98751   0.97525   0.81069   0.00000  Uiso   1.00
O1823  O     0.75786   0.81164   0.68991   0.00000  Uiso   1.00
O1824  O     0.75203   0.85928   0.81374   0.00000  Uiso   1.00
