data_final_Br-Fe-SABVOH01
_audit_creation_date              2022-12-15
_audit_creation_method            'Materials Studio'
_symmetry_space_group_name_H-M    'P1'
_symmetry_Int_Tables_number       1
_symmetry_cell_setting            triclinic
loop_
_symmetry_equiv_pos_as_xyz
  x,y,z
_cell_length_a                    33.0711
_cell_length_b                    35.7411
_cell_length_c                    25.5895
_cell_angle_alpha                 90.0000
_cell_angle_beta                  90.0000
_cell_angle_gamma                 90.0000
loop_
_atom_site_label
_atom_site_type_symbol
_atom_site_fract_x
_atom_site_fract_y
_atom_site_fract_z
_atom_site_U_iso_or_equiv
_atom_site_adp_type
_atom_site_occupancy
Fe1    Fe    0.00073   0.00092   0.38666   0.00000  Uiso   1.00
Fe2    Fe    0.00147   0.00108   0.76150   0.00000  Uiso   1.00
Fe3    Fe    0.00178   0.33403   0.00658   0.00000  Uiso   1.00
Fe4    Fe    0.00118   0.33209   0.25709   0.00000  Uiso   1.00
Fe5    Fe    0.00088   0.33270   0.13170   0.00000  Uiso   1.00
Fe6    Fe    0.00146   0.33359   0.38044   0.00000  Uiso   1.00
Fe7    Fe    0.00089   0.33331   0.50533   0.00000  Uiso   1.00
Fe8    Fe    0.00182   0.33078   0.63082   0.00000  Uiso   1.00
Fe9    Fe    0.00145   0.32999   0.75704   0.00000  Uiso   1.00
Fe10   Fe    0.00164   0.33290   0.88110   0.00000  Uiso   1.00
Fe11   Fe    0.24818   0.50060   0.13236   0.00000  Uiso   1.00
Fe12   Fe    0.24972   0.49976   0.25740   0.00000  Uiso   1.00
Fe13   Fe    0.24994   0.49533   0.63469   0.00000  Uiso   1.00
Fe14   Fe    0.00174   0.66945   0.38018   0.00000  Uiso   1.00
Fe15   Fe    0.00013   0.66434   0.25627   0.00000  Uiso   1.00
Fe16   Fe    0.00417   0.66842   0.50703   0.00000  Uiso   1.00
Fe17   Fe    0.00176   0.66813   0.63139   0.00000  Uiso   1.00
Fe18   Fe    0.24909   0.83529   0.26542   0.00000  Uiso   1.00
Fe19   Fe    0.24813   0.83553   0.38837   0.00000  Uiso   1.00
Fe20   Fe    0.24834   0.83054   0.01395   0.00000  Uiso   1.00
Fe21   Fe    0.24983   0.83154   0.13893   0.00000  Uiso   1.00
Fe22   Fe    0.24593   0.82852   0.89051   0.00000  Uiso   1.00
Fe23   Fe    0.24842   0.83286   0.63699   0.00000  Uiso   1.00
Fe24   Fe    0.24666   0.83136   0.76317   0.00000  Uiso   1.00
Fe25   Fe    0.24828   0.83453   0.51311   0.00000  Uiso   1.00
Fe26   Fe    0.25281   0.16437   0.00660   0.00000  Uiso   1.00
Fe27   Fe    0.25390   0.16635   0.13173   0.00000  Uiso   1.00
Fe28   Fe    0.25223   0.16790   0.25813   0.00000  Uiso   1.00
Fe29   Fe    0.25166   0.16726   0.38191   0.00000  Uiso   1.00
Fe30   Fe    0.25107   0.16610   0.88225   0.00000  Uiso   1.00
Fe31   Fe    0.25158   0.16882   0.50820   0.00000  Uiso   1.00
Fe32   Fe    0.25293   0.16647   0.63201   0.00000  Uiso   1.00
Fe33   Fe    0.25297   0.16847   0.75724   0.00000  Uiso   1.00
Fe34   Fe    0.49969   0.33754   0.13337   0.00000  Uiso   1.00
Fe35   Fe    0.49988   0.33590   0.75978   0.00000  Uiso   1.00
Fe36   Fe    0.49897   0.33792   0.88444   0.00000  Uiso   1.00
Fe37   Fe    0.25099   0.49677   0.38413   0.00000  Uiso   1.00
Fe38   Fe    0.25056   0.50135   0.00900   0.00000  Uiso   1.00
Fe39   Fe    0.25009   0.49558   0.76054   0.00000  Uiso   1.00
Fe40   Fe    0.25032   0.49676   0.50896   0.00000  Uiso   1.00
Fe41   Fe    0.25155   0.50024   0.88473   0.00000  Uiso   1.00
Fe42   Fe    0.49761   0.66445   0.00344   0.00000  Uiso   1.00
Fe43   Fe    0.49780   0.66593   0.37954   0.00000  Uiso   1.00
Fe44   Fe    0.49580   0.66441   0.63188   0.00000  Uiso   1.00
Fe45   Fe    0.49694   0.66433   0.75385   0.00000  Uiso   1.00
Fe46   Fe    0.49852   0.66545   0.87867   0.00000  Uiso   1.00
Fe47   Fe    0.49745   0.66460   0.50623   0.00000  Uiso   1.00
Fe48   Fe    0.49722   0.99915   0.38585   0.00000  Uiso   1.00
Fe49   Fe    0.49660   0.99879   0.63386   0.00000  Uiso   1.00
Fe50   Fe    0.49601   0.99755   0.50761   0.00000  Uiso   1.00
Fe51   Fe    0.49951   0.99640   0.75693   0.00000  Uiso   1.00
Fe52   Fe    0.74851   0.16606   0.38283   0.00000  Uiso   1.00
Fe53   Fe    0.74835   0.16579   0.25751   0.00000  Uiso   1.00
Fe54   Fe    0.74956   0.16819   0.13219   0.00000  Uiso   1.00
Fe55   Fe    0.50182   0.00006   0.13260   0.00000  Uiso   1.00
Fe56   Fe    0.74713   0.16882   0.88148   0.00000  Uiso   1.00
Fe57   Fe    0.74825   0.16830   0.63420   0.00000  Uiso   1.00
Fe58   Fe    0.74890   0.16915   0.75747   0.00000  Uiso   1.00
Fe59   Fe    0.74763   0.16863   0.50790   0.00000  Uiso   1.00
Fe60   Fe    0.50052   0.33629   0.25895   0.00000  Uiso   1.00
Fe61   Fe    0.50120   0.33625   0.38415   0.00000  Uiso   1.00
Fe62   Fe    0.50005   0.33992   0.00891   0.00000  Uiso   1.00
Fe63   Fe    0.50187   0.33488   0.50987   0.00000  Uiso   1.00
Fe64   Fe    0.50022   0.33465   0.63547   0.00000  Uiso   1.00
Fe65   Fe    0.74986   0.50221   0.00708   0.00000  Uiso   1.00
Fe66   Fe    0.50055   0.66606   0.25415   0.00000  Uiso   1.00
Fe67   Fe    0.50058   0.66445   0.12913   0.00000  Uiso   1.00
Fe68   Fe    0.50037   0.99781   0.00667   0.00000  Uiso   1.00
Fe69   Fe    0.74954   0.83360   0.38410   0.00000  Uiso   1.00
Fe70   Fe    0.50065   0.99991   0.25887   0.00000  Uiso   1.00
Fe71   Fe    0.74878   0.83093   0.13280   0.00000  Uiso   1.00
Fe72   Fe    0.74910   0.83302   0.50707   0.00000  Uiso   1.00
Fe73   Fe    0.50081   0.99745   0.88160   0.00000  Uiso   1.00
Fe74   Fe    0.99918   0.00076   0.01092   0.00000  Uiso   1.00
Fe75   Fe    0.99934   0.00371   0.13568   0.00000  Uiso   1.00
Fe76   Fe    0.99959   0.00262   0.26075   0.00000  Uiso   1.00
Fe77   Fe    0.75047   0.16842   0.00790   0.00000  Uiso   1.00
Fe78   Fe    0.99878   0.00340   0.63643   0.00000  Uiso   1.00
Fe79   Fe    0.99964   0.00208   0.51188   0.00000  Uiso   1.00
Fe80   Fe    0.75362   0.49974   0.25582   0.00000  Uiso   1.00
Fe81   Fe    0.75114   0.50085   0.38023   0.00000  Uiso   1.00
Fe82   Fe    0.75236   0.50020   0.13007   0.00000  Uiso   1.00
Fe83   Fe    0.75224   0.50164   0.50640   0.00000  Uiso   1.00
Fe84   Fe    0.75185   0.50312   0.75382   0.00000  Uiso   1.00
Fe85   Fe    0.75062   0.50286   0.88002   0.00000  Uiso   1.00
Fe86   Fe    0.75233   0.50202   0.63114   0.00000  Uiso   1.00
Fe87   Fe    0.99837   0.66325   0.13096   0.00000  Uiso   1.00
Fe88   Fe    0.99843   0.66391   0.00637   0.00000  Uiso   1.00
Fe89   Fe    0.99963   0.66659   0.75571   0.00000  Uiso   1.00
Fe90   Fe    0.99836   0.66511   0.88159   0.00000  Uiso   1.00
Fe91   Fe    0.75021   0.83003   0.00803   0.00000  Uiso   1.00
Fe92   Fe    0.75069   0.83274   0.25719   0.00000  Uiso   1.00
Fe93   Fe    0.75088   0.83057   0.88353   0.00000  Uiso   1.00
Fe94   Fe    0.99907   0.99835   0.88620   0.00000  Uiso   1.00
Fe95   Fe    0.75105   0.83077   0.63249   0.00000  Uiso   1.00
Fe96   Fe    0.75062   0.83224   0.75997   0.00000  Uiso   1.00
Br97   Br    0.11032   0.15679   0.36554   0.00000  Uiso   1.00
Br98   Br    0.21395   0.03765   0.16245   0.00000  Uiso   1.00
Br99   Br    0.21870   0.04193   0.41567   0.00000  Uiso   1.00
Br100  Br    0.11708   0.16585   0.10353   0.00000  Uiso   1.00
Br101  Br    0.03540   0.19986   0.28044   0.00000  Uiso   1.00
Br102  Br    0.11436   0.14949   0.86503   0.00000  Uiso   1.00
Br103  Br    0.21387   0.03964   0.66057   0.00000  Uiso   1.00
Br104  Br    0.12007   0.15652   0.60852   0.00000  Uiso   1.00
Br105  Br    0.22362   0.03124   0.89936   0.00000  Uiso   1.00
Br106  Br    0.03079   0.19553   0.77292   0.00000  Uiso   1.00
Br107  Br    0.04184   0.20374   0.03313   0.00000  Uiso   1.00
Br108  Br    0.14181   0.32106   0.23820   0.00000  Uiso   1.00
Br109  Br    0.21387   0.36805   0.40815   0.00000  Uiso   1.00
Br110  Br    0.22080   0.36352   0.16362   0.00000  Uiso   1.00
Br111  Br    0.12829   0.32825   0.47303   0.00000  Uiso   1.00
Br112  Br    0.13872   0.32044   0.73353   0.00000  Uiso   1.00
Br113  Br    0.21389   0.36716   0.91693   0.00000  Uiso   1.00
Br114  Br    0.13284   0.32529   0.98065   0.00000  Uiso   1.00
Br115  Br    0.21852   0.35982   0.65517   0.00000  Uiso   1.00
Br116  Br    0.03436   0.20329   0.53571   0.00000  Uiso   1.00
Br117  Br    0.11743   0.49034   0.10830   0.00000  Uiso   1.00
Br118  Br    0.11153   0.48843   0.36684   0.00000  Uiso   1.00
Br119  Br    0.02789   0.53518   0.03241   0.00000  Uiso   1.00
Br120  Br    0.02895   0.53566   0.29263   0.00000  Uiso   1.00
Br121  Br    0.11462   0.49258   0.60518   0.00000  Uiso   1.00
Br122  Br    0.11853   0.49373   0.84365   0.00000  Uiso   1.00
Br123  Br    0.03383   0.54433   0.53693   0.00000  Uiso   1.00
Br124  Br    0.03682   0.53414   0.77804   0.00000  Uiso   1.00
Br125  Br    0.21809   0.69784   0.16220   0.00000  Uiso   1.00
Br126  Br    0.14045   0.65343   0.24136   0.00000  Uiso   1.00
Br127  Br    0.20892   0.69708   0.40688   0.00000  Uiso   1.00
Br128  Br    0.13114   0.66474   0.47007   0.00000  Uiso   1.00
Br129  Br    0.21487   0.69819   0.65907   0.00000  Uiso   1.00
Br130  Br    0.13232   0.65588   0.72775   0.00000  Uiso   1.00
Br131  Br    0.21602   0.70003   0.91712   0.00000  Uiso   1.00
Br132  Br    0.14594   0.65731   0.99360   0.00000  Uiso   1.00
Br133  Br    0.11222   0.83031   0.11364   0.00000  Uiso   1.00
Br134  Br    0.03665   0.87681   0.05303   0.00000  Uiso   1.00
Br135  Br    0.11550   0.82537   0.35691   0.00000  Uiso   1.00
Br136  Br    0.03028   0.87257   0.27061   0.00000  Uiso   1.00
Br137  Br    0.13848   0.99078   0.48749   0.00000  Uiso   1.00
Br138  Br    0.13097   0.99642   0.22518   0.00000  Uiso   1.00
Br139  Br    0.10741   0.82433   0.61475   0.00000  Uiso   1.00
Br140  Br    0.02912   0.87937   0.55229   0.00000  Uiso   1.00
Br141  Br    0.11353   0.82305   0.86102   0.00000  Uiso   1.00
Br142  Br    0.02701   0.87304   0.77883   0.00000  Uiso   1.00
Br143  Br    0.12987   0.99755   0.72988   0.00000  Uiso   1.00
Br144  Br    0.13005   0.98769   0.99202   0.00000  Uiso   1.00
Br145  Br    0.39157   0.18043   0.23483   0.00000  Uiso   1.00
Br146  Br    0.47101   0.12913   0.15480   0.00000  Uiso   1.00
Br147  Br    0.46775   0.13381   0.41013   0.00000  Uiso   1.00
Br148  Br    0.38750   0.18032   0.47933   0.00000  Uiso   1.00
Br149  Br    0.35970   0.00917   0.35872   0.00000  Uiso   1.00
Br150  Br    0.37004   0.00407   0.09616   0.00000  Uiso   1.00
Br151  Br    0.38588   0.17317   0.72924   0.00000  Uiso   1.00
Br152  Br    0.46715   0.12800   0.65814   0.00000  Uiso   1.00
Br153  Br    0.46927   0.12480   0.89943   0.00000  Uiso   1.00
Br154  Br    0.36190   0.01025   0.61066   0.00000  Uiso   1.00
Br155  Br    0.38567   0.17681   0.97643   0.00000  Uiso   1.00
Br156  Br    0.36736   0.00425   0.86466   0.00000  Uiso   1.00
Br157  Br    0.28218   0.29148   0.03191   0.00000  Uiso   1.00
Br158  Br    0.36120   0.34549   0.10719   0.00000  Uiso   1.00
Br159  Br    0.28792   0.28981   0.29004   0.00000  Uiso   1.00
Br160  Br    0.36402   0.33800   0.35218   0.00000  Uiso   1.00
Br161  Br    0.28331   0.29554   0.53205   0.00000  Uiso   1.00
Br162  Br    0.36045   0.34378   0.61338   0.00000  Uiso   1.00
Br163  Br    0.28239   0.28961   0.78803   0.00000  Uiso   1.00
Br164  Br    0.36130   0.34652   0.87082   0.00000  Uiso   1.00
Br165  Br    0.46491   0.46916   0.16776   0.00000  Uiso   1.00
Br166  Br    0.38340   0.50863   0.23143   0.00000  Uiso   1.00
Br167  Br    0.38196   0.50639   0.47994   0.00000  Uiso   1.00
Br168  Br    0.46779   0.46329   0.40845   0.00000  Uiso   1.00
Br169  Br    0.38819   0.52189   0.98801   0.00000  Uiso   1.00
Br170  Br    0.47523   0.46599   0.66269   0.00000  Uiso   1.00
Br171  Br    0.38531   0.50893   0.73036   0.00000  Uiso   1.00
Br172  Br    0.47473   0.47351   0.90455   0.00000  Uiso   1.00
Br173  Br    0.35252   0.68184   0.11249   0.00000  Uiso   1.00
Br174  Br    0.36709   0.66535   0.35394   0.00000  Uiso   1.00
Br175  Br    0.27797   0.62962   0.03493   0.00000  Uiso   1.00
Br176  Br    0.46260   0.78931   0.41341   0.00000  Uiso   1.00
Br177  Br    0.28783   0.62481   0.29303   0.00000  Uiso   1.00
Br178  Br    0.46938   0.79425   0.16105   0.00000  Uiso   1.00
Br179  Br    0.35158   0.67500   0.61741   0.00000  Uiso   1.00
Br180  Br    0.36895   0.67053   0.84854   0.00000  Uiso   1.00
Br181  Br    0.47116   0.79492   0.90550   0.00000  Uiso   1.00
Br182  Br    0.28351   0.62926   0.78708   0.00000  Uiso   1.00
Br183  Br    0.28489   0.62453   0.53307   0.00000  Uiso   1.00
Br184  Br    0.46514   0.78614   0.66508   0.00000  Uiso   1.00
Br185  Br    0.28861   0.96334   0.03441   0.00000  Uiso   1.00
Br186  Br    0.28346   0.96877   0.27685   0.00000  Uiso   1.00
Br187  Br    0.37784   0.84203   0.23238   0.00000  Uiso   1.00
Br188  Br    0.37744   0.83904   0.47529   0.00000  Uiso   1.00
Br189  Br    0.28133   0.97069   0.53507   0.00000  Uiso   1.00
Br190  Br    0.28499   0.96211   0.79497   0.00000  Uiso   1.00
Br191  Br    0.38269   0.84216   0.74361   0.00000  Uiso   1.00
Br192  Br    0.38335   0.83936   0.98317   0.00000  Uiso   1.00
Br193  Br    0.61573   0.15801   0.34986   0.00000  Uiso   1.00
Br194  Br    0.71798   0.04814   0.15989   0.00000  Uiso   1.00
Br195  Br    0.71654   0.03727   0.41335   0.00000  Uiso   1.00
Br196  Br    0.61737   0.16475   0.10560   0.00000  Uiso   1.00
Br197  Br    0.53277   0.19322   0.27625   0.00000  Uiso   1.00
Br198  Br    0.61588   0.16249   0.85415   0.00000  Uiso   1.00
Br199  Br    0.71286   0.04044   0.65621   0.00000  Uiso   1.00
Br200  Br    0.71293   0.04005   0.91607   0.00000  Uiso   1.00
Br201  Br    0.60901   0.15699   0.60980   0.00000  Uiso   1.00
Br202  Br    0.53533   0.19986   0.78336   0.00000  Uiso   1.00
Br203  Br    0.64259   0.32386   0.24337   0.00000  Uiso   1.00
Br204  Br    0.71926   0.37880   0.41552   0.00000  Uiso   1.00
Br205  Br    0.53168   0.21537   0.04641   0.00000  Uiso   1.00
Br206  Br    0.71982   0.37021   0.15176   0.00000  Uiso   1.00
Br207  Br    0.63378   0.32933   0.48399   0.00000  Uiso   1.00
Br208  Br    0.63874   0.32466   0.73437   0.00000  Uiso   1.00
Br209  Br    0.63004   0.33384   0.97196   0.00000  Uiso   1.00
Br210  Br    0.71265   0.37008   0.90710   0.00000  Uiso   1.00
Br211  Br    0.72250   0.37143   0.65064   0.00000  Uiso   1.00
Br212  Br    0.52730   0.20401   0.53105   0.00000  Uiso   1.00
Br213  Br    0.61496   0.48395   0.11077   0.00000  Uiso   1.00
Br214  Br    0.62120   0.49702   0.35168   0.00000  Uiso   1.00
Br215  Br    0.52372   0.53224   0.02914   0.00000  Uiso   1.00
Br216  Br    0.54275   0.53988   0.28894   0.00000  Uiso   1.00
Br217  Br    0.61365   0.49511   0.60480   0.00000  Uiso   1.00
Br218  Br    0.60872   0.48784   0.86389   0.00000  Uiso   1.00
Br219  Br    0.53186   0.53556   0.52607   0.00000  Uiso   1.00
Br220  Br    0.53418   0.53457   0.78289   0.00000  Uiso   1.00
Br221  Br    0.71899   0.69702   0.15870   0.00000  Uiso   1.00
Br222  Br    0.63351   0.65525   0.22960   0.00000  Uiso   1.00
Br223  Br    0.71405   0.70820   0.40476   0.00000  Uiso   1.00
Br224  Br    0.63101   0.66143   0.47733   0.00000  Uiso   1.00
Br225  Br    0.63640   0.65794   0.98091   0.00000  Uiso   1.00
Br226  Br    0.71125   0.71060   0.66004   0.00000  Uiso   1.00
Br227  Br    0.63285   0.66065   0.72569   0.00000  Uiso   1.00
Br228  Br    0.71130   0.70235   0.90834   0.00000  Uiso   1.00
Br229  Br    0.61971   0.82222   0.10702   0.00000  Uiso   1.00
Br230  Br    0.54178   0.85897   0.03546   0.00000  Uiso   1.00
Br231  Br    0.61122   0.82599   0.35747   0.00000  Uiso   1.00
Br232  Br    0.53823   0.87490   0.29145   0.00000  Uiso   1.00
Br233  Br    0.64035   0.98920   0.48527   0.00000  Uiso   1.00
Br234  Br    0.63168   0.99075   0.23144   0.00000  Uiso   1.00
Br235  Br    0.62058   0.83083   0.60218   0.00000  Uiso   1.00
Br236  Br    0.53423   0.87035   0.53977   0.00000  Uiso   1.00
Br237  Br    0.61403   0.82113   0.85219   0.00000  Uiso   1.00
Br238  Br    0.53140   0.86671   0.77516   0.00000  Uiso   1.00
Br239  Br    0.63267   0.99382   0.97564   0.00000  Uiso   1.00
Br240  Br    0.62991   0.99502   0.72285   0.00000  Uiso   1.00
Br241  Br    0.88784   0.18010   0.48890   0.00000  Uiso   1.00
Br242  Br    0.88735   0.17534   0.22907   0.00000  Uiso   1.00
Br243  Br    0.96174   0.13118   0.16149   0.00000  Uiso   1.00
Br244  Br    0.97129   0.13917   0.40513   0.00000  Uiso   1.00
Br245  Br    0.86483   0.01674   0.36417   0.00000  Uiso   1.00
Br246  Br    0.87031   0.00563   0.11205   0.00000  Uiso   1.00
Br247  Br    0.86802   0.00217   0.60746   0.00000  Uiso   1.00
Br248  Br    0.89056   0.17292   0.73645   0.00000  Uiso   1.00
Br249  Br    0.96223   0.13162   0.66565   0.00000  Uiso   1.00
Br250  Br    0.96500   0.12944   0.90281   0.00000  Uiso   1.00
Br251  Br    0.88821   0.17804   0.98060   0.00000  Uiso   1.00
Br252  Br    0.86531   0.00446   0.85682   0.00000  Uiso   1.00
Br253  Br    0.78524   0.30104   0.03196   0.00000  Uiso   1.00
Br254  Br    0.86375   0.34403   0.10561   0.00000  Uiso   1.00
Br255  Br    0.79023   0.29871   0.27996   0.00000  Uiso   1.00
Br256  Br    0.87002   0.33330   0.34787   0.00000  Uiso   1.00
Br257  Br    0.78430   0.29720   0.52964   0.00000  Uiso   1.00
Br258  Br    0.86242   0.34337   0.60455   0.00000  Uiso   1.00
Br259  Br    0.77962   0.29892   0.78010   0.00000  Uiso   1.00
Br260  Br    0.86556   0.34389   0.86805   0.00000  Uiso   1.00
Br261  Br    0.88338   0.50858   0.48297   0.00000  Uiso   1.00
Br262  Br    0.96767   0.46574   0.16074   0.00000  Uiso   1.00
Br263  Br    0.88744   0.50786   0.22794   0.00000  Uiso   1.00
Br264  Br    0.96972   0.46674   0.40403   0.00000  Uiso   1.00
Br265  Br    0.96022   0.45167   0.66997   0.00000  Uiso   1.00
Br266  Br    0.88308   0.50241   0.72442   0.00000  Uiso   1.00
Br267  Br    0.97022   0.46154   0.89913   0.00000  Uiso   1.00
Br268  Br    0.88973   0.51372   0.98017   0.00000  Uiso   1.00
Br269  Br    0.86892   0.67053   0.09550   0.00000  Uiso   1.00
Br270  Br    0.78233   0.63111   0.04084   0.00000  Uiso   1.00
Br271  Br    0.86849   0.67815   0.36086   0.00000  Uiso   1.00
Br272  Br    0.77797   0.62720   0.28253   0.00000  Uiso   1.00
Br273  Br    0.96292   0.79836   0.40499   0.00000  Uiso   1.00
Br274  Br    0.86317   0.67714   0.59910   0.00000  Uiso   1.00
Br275  Br    0.78481   0.63692   0.76993   0.00000  Uiso   1.00
Br276  Br    0.86337   0.67959   0.85177   0.00000  Uiso   1.00
Br277  Br    0.96412   0.78910   0.66298   0.00000  Uiso   1.00
Br278  Br    0.78520   0.62721   0.53015   0.00000  Uiso   1.00
Br279  Br    0.78531   0.94948   0.04726   0.00000  Uiso   1.00
Br280  Br    0.77542   0.96495   0.27458   0.00000  Uiso   1.00
Br281  Br    0.88032   0.84005   0.22207   0.00000  Uiso   1.00
Br282  Br    0.88275   0.84370   0.48152   0.00000  Uiso   1.00
Br283  Br    0.96724   0.80743   0.14969   0.00000  Uiso   1.00
Br284  Br    0.78627   0.96122   0.53656   0.00000  Uiso   1.00
Br285  Br    0.88198   0.83375   0.72524   0.00000  Uiso   1.00
Br286  Br    0.78627   0.96140   0.78127   0.00000  Uiso   1.00
Br287  Br    0.88349   0.83990   0.98604   0.00000  Uiso   1.00
Br288  Br    0.97147   0.80227   0.90154   0.00000  Uiso   1.00
H289   H     0.17023   0.07754   0.48652   0.00000  Uiso   1.00
H290   H     0.12021   0.05547   0.15788   0.00000  Uiso   1.00
H291   H     0.17678   0.07293   0.23736   0.00000  Uiso   1.00
H292   H     0.12665   0.03246   0.40564   0.00000  Uiso   1.00
H293   H     0.02860   0.04136   0.45005   0.00000  Uiso   1.00
H294   H     0.02057   0.04739   0.19829   0.00000  Uiso   1.00
H295   H     0.12855   0.19329   0.27596   0.00000  Uiso   1.00
H296   H     0.11999   0.04594   0.65446   0.00000  Uiso   1.00
H297   H     0.17090   0.08067   0.73302   0.00000  Uiso   1.00
H298   H     0.13012   0.03035   0.90025   0.00000  Uiso   1.00
H299   H     0.02506   0.04598   0.70373   0.00000  Uiso   1.00
H300   H     0.18672   0.05619   0.98700   0.00000  Uiso   1.00
H301   H     0.01684   0.04221   0.94639   0.00000  Uiso   1.00
H302   H     0.12354   0.19390   0.77651   0.00000  Uiso   1.00
H303   H     0.02124   0.37865   0.44394   0.00000  Uiso   1.00
H304   H     0.01549   0.37587   0.19024   0.00000  Uiso   1.00
H305   H     0.07928   0.24574   0.10820   0.00000  Uiso   1.00
H306   H     0.07008   0.23782   0.36235   0.00000  Uiso   1.00
H307   H     0.13908   0.21989   0.02520   0.00000  Uiso   1.00
H308   H     0.11940   0.37789   0.40064   0.00000  Uiso   1.00
H309   H     0.12739   0.35799   0.15332   0.00000  Uiso   1.00
H310   H     0.23155   0.20884   0.32271   0.00000  Uiso   1.00
H311   H     0.23523   0.20870   0.06976   0.00000  Uiso   1.00
H312   H     0.01849   0.37637   0.69281   0.00000  Uiso   1.00
H313   H     0.12670   0.36555   0.65298   0.00000  Uiso   1.00
H314   H     0.02106   0.37899   0.94667   0.00000  Uiso   1.00
H315   H     0.06377   0.22331   0.85926   0.00000  Uiso   1.00
H316   H     0.11571   0.37626   0.90316   0.00000  Uiso   1.00
H317   H     0.19572   0.38824   0.74468   0.00000  Uiso   1.00
H318   H     0.07970   0.23869   0.60311   0.00000  Uiso   1.00
H319   H     0.22673   0.21063   0.82226   0.00000  Uiso   1.00
H320   H     0.23242   0.21125   0.56915   0.00000  Uiso   1.00
H321   H     0.13285   0.20803   0.53135   0.00000  Uiso   1.00
H322   H     0.07536   0.57040   0.10781   0.00000  Uiso   1.00
H323   H     0.12082   0.53676   0.02378   0.00000  Uiso   1.00
H324   H     0.12570   0.53138   0.27861   0.00000  Uiso   1.00
H325   H     0.21718   0.53325   0.06891   0.00000  Uiso   1.00
H326   H     0.07713   0.57295   0.35815   0.00000  Uiso   1.00
H327   H     0.17506   0.40739   0.48547   0.00000  Uiso   1.00
H328   H     0.18228   0.40031   0.23169   0.00000  Uiso   1.00
H329   H     0.23220   0.54482   0.31832   0.00000  Uiso   1.00
H330   H     0.13161   0.54049   0.53170   0.00000  Uiso   1.00
H331   H     0.22517   0.53875   0.82130   0.00000  Uiso   1.00
H332   H     0.13659   0.55450   0.77587   0.00000  Uiso   1.00
H333   H     0.22542   0.53521   0.57062   0.00000  Uiso   1.00
H334   H     0.07687   0.57532   0.85723   0.00000  Uiso   1.00
H335   H     0.07658   0.57545   0.61155   0.00000  Uiso   1.00
H336   H     0.17411   0.41101   0.99304   0.00000  Uiso   1.00
H337   H     0.18937   0.73198   0.48896   0.00000  Uiso   1.00
H338   H     0.12379   0.69422   0.15760   0.00000  Uiso   1.00
H339   H     0.19381   0.72206   0.24741   0.00000  Uiso   1.00
H340   H     0.11115   0.72408   0.40441   0.00000  Uiso   1.00
H341   H     0.01630   0.71275   0.44615   0.00000  Uiso   1.00
H342   H     0.02085   0.70770   0.19579   0.00000  Uiso   1.00
H343   H     0.17727   0.73999   0.99510   0.00000  Uiso   1.00
H344   H     0.12225   0.70632   0.65579   0.00000  Uiso   1.00
H345   H     0.17885   0.73489   0.73884   0.00000  Uiso   1.00
H346   H     0.12844   0.68351   0.90355   0.00000  Uiso   1.00
H347   H     0.02727   0.70463   0.94828   0.00000  Uiso   1.00
H348   H     0.01782   0.71470   0.69437   0.00000  Uiso   1.00
H349   H     0.08228   0.92005   0.11408   0.00000  Uiso   1.00
H350   H     0.13481   0.88064   0.03854   0.00000  Uiso   1.00
H351   H     0.06165   0.89389   0.36540   0.00000  Uiso   1.00
H352   H     0.12597   0.87581   0.28360   0.00000  Uiso   1.00
H353   H     0.24162   0.88366   0.32585   0.00000  Uiso   1.00
H354   H     0.22913   0.87658   0.07514   0.00000  Uiso   1.00
H355   H     0.07790   0.91417   0.61484   0.00000  Uiso   1.00
H356   H     0.12296   0.87853   0.54100   0.00000  Uiso   1.00
H357   H     0.06466   0.89298   0.87144   0.00000  Uiso   1.00
H358   H     0.12275   0.86656   0.78248   0.00000  Uiso   1.00
H359   H     0.22374   0.87306   0.82787   0.00000  Uiso   1.00
H360   H     0.22935   0.87749   0.57842   0.00000  Uiso   1.00
H361   H     0.26354   0.12387   0.44889   0.00000  Uiso   1.00
H362   H     0.43792   0.10381   0.49041   0.00000  Uiso   1.00
H363   H     0.27774   0.12690   0.19214   0.00000  Uiso   1.00
H364   H     0.43374   0.09949   0.23688   0.00000  Uiso   1.00
H365   H     0.38178   0.13239   0.15170   0.00000  Uiso   1.00
H366   H     0.37105   0.12541   0.40780   0.00000  Uiso   1.00
H367   H     0.27936   0.12760   0.69163   0.00000  Uiso   1.00
H368   H     0.42187   0.08948   0.72970   0.00000  Uiso   1.00
H369   H     0.36924   0.12115   0.65089   0.00000  Uiso   1.00
H370   H     0.43496   0.09612   0.98088   0.00000  Uiso   1.00
H371   H     0.37200   0.13117   0.89996   0.00000  Uiso   1.00
H372   H     0.27092   0.11962   0.94051   0.00000  Uiso   1.00
H373   H     0.37556   0.30155   0.03105   0.00000  Uiso   1.00
H374   H     0.46969   0.29945   0.32237   0.00000  Uiso   1.00
H375   H     0.31919   0.26929   0.10957   0.00000  Uiso   1.00
H376   H     0.38554   0.29300   0.27565   0.00000  Uiso   1.00
H377   H     0.33120   0.25509   0.36086   0.00000  Uiso   1.00
H378   H     0.47444   0.29919   0.06714   0.00000  Uiso   1.00
H379   H     0.37449   0.30307   0.52656   0.00000  Uiso   1.00
H380   H     0.32809   0.25459   0.61270   0.00000  Uiso   1.00
H381   H     0.37733   0.30220   0.78079   0.00000  Uiso   1.00
H382   H     0.32602   0.25958   0.86234   0.00000  Uiso   1.00
H383   H     0.48199   0.29013   0.57424   0.00000  Uiso   1.00
H384   H     0.47411   0.29597   0.82149   0.00000  Uiso   1.00
H385   H     0.26526   0.45208   0.44482   0.00000  Uiso   1.00
H386   H     0.26772   0.45626   0.19487   0.00000  Uiso   1.00
H387   H     0.36826   0.46778   0.15421   0.00000  Uiso   1.00
H388   H     0.37132   0.46093   0.40646   0.00000  Uiso   1.00
H389   H     0.43145   0.42564   0.48988   0.00000  Uiso   1.00
H390   H     0.42803   0.42564   0.23871   0.00000  Uiso   1.00
H391   H     0.32472   0.58550   0.36176   0.00000  Uiso   1.00
H392   H     0.31581   0.59984   0.11363   0.00000  Uiso   1.00
H393   H     0.37547   0.46224   0.65829   0.00000  Uiso   1.00
H394   H     0.38009   0.47789   0.90325   0.00000  Uiso   1.00
H395   H     0.27819   0.45579   0.69746   0.00000  Uiso   1.00
H396   H     0.26411   0.45723   0.94647   0.00000  Uiso   1.00
H397   H     0.44238   0.44748   0.99003   0.00000  Uiso   1.00
H398   H     0.42980   0.42907   0.73322   0.00000  Uiso   1.00
H399   H     0.32123   0.58922   0.61097   0.00000  Uiso   1.00
H400   H     0.32185   0.58971   0.85656   0.00000  Uiso   1.00
H401   H     0.42439   0.76357   0.23547   0.00000  Uiso   1.00
H402   H     0.37561   0.78971   0.15916   0.00000  Uiso   1.00
H403   H     0.27050   0.79345   0.45047   0.00000  Uiso   1.00
H404   H     0.38578   0.62184   0.27579   0.00000  Uiso   1.00
H405   H     0.48059   0.62021   0.31849   0.00000  Uiso   1.00
H406   H     0.26669   0.78873   0.20509   0.00000  Uiso   1.00
H407   H     0.42483   0.76117   0.48651   0.00000  Uiso   1.00
H408   H     0.47718   0.62284   0.06730   0.00000  Uiso   1.00
H409   H     0.37087   0.63526   0.02838   0.00000  Uiso   1.00
H410   H     0.36867   0.78412   0.40848   0.00000  Uiso   1.00
H411   H     0.42570   0.76314   0.98296   0.00000  Uiso   1.00
H412   H     0.47226   0.62144   0.56862   0.00000  Uiso   1.00
H413   H     0.41877   0.75188   0.73720   0.00000  Uiso   1.00
H414   H     0.27549   0.79208   0.70005   0.00000  Uiso   1.00
H415   H     0.47585   0.62307   0.81628   0.00000  Uiso   1.00
H416   H     0.37917   0.61408   0.77917   0.00000  Uiso   1.00
H417   H     0.25330   0.78175   0.95182   0.00000  Uiso   1.00
H418   H     0.37191   0.64051   0.52546   0.00000  Uiso   1.00
H419   H     0.37585   0.79330   0.90793   0.00000  Uiso   1.00
H420   H     0.37421   0.79381   0.65789   0.00000  Uiso   1.00
H421   H     0.38367   0.94763   0.03336   0.00000  Uiso   1.00
H422   H     0.32852   0.92086   0.10893   0.00000  Uiso   1.00
H423   H     0.37781   0.96436   0.28044   0.00000  Uiso   1.00
H424   H     0.31847   0.93026   0.36058   0.00000  Uiso   1.00
H425   H     0.47107   0.95706   0.32230   0.00000  Uiso   1.00
H426   H     0.48172   0.95399   0.07124   0.00000  Uiso   1.00
H427   H     0.37939   0.95920   0.53103   0.00000  Uiso   1.00
H428   H     0.31022   0.93633   0.61766   0.00000  Uiso   1.00
H429   H     0.38164   0.95518   0.78590   0.00000  Uiso   1.00
H430   H     0.32253   0.92263   0.86327   0.00000  Uiso   1.00
H431   H     0.48534   0.94984   0.82475   0.00000  Uiso   1.00
H432   H     0.46975   0.95809   0.57526   0.00000  Uiso   1.00
H433   H     0.52093   0.04214   0.44811   0.00000  Uiso   1.00
H434   H     0.62739   0.03185   0.15240   0.00000  Uiso   1.00
H435   H     0.67196   0.06814   0.23720   0.00000  Uiso   1.00
H436   H     0.61871   0.03606   0.40982   0.00000  Uiso   1.00
H437   H     0.67569   0.07349   0.48407   0.00000  Uiso   1.00
H438   H     0.51794   0.04452   0.19372   0.00000  Uiso   1.00
H439   H     0.61371   0.04950   0.65235   0.00000  Uiso   1.00
H440   H     0.66929   0.07303   0.73427   0.00000  Uiso   1.00
H441   H     0.61531   0.04125   0.90394   0.00000  Uiso   1.00
H442   H     0.67429   0.07370   0.98402   0.00000  Uiso   1.00
H443   H     0.52250   0.03974   0.69272   0.00000  Uiso   1.00
H444   H     0.50885   0.04541   0.94375   0.00000  Uiso   1.00
H445   H     0.57726   0.25237   0.11287   0.00000  Uiso   1.00
H446   H     0.56410   0.23390   0.35740   0.00000  Uiso   1.00
H447   H     0.62615   0.36522   0.15078   0.00000  Uiso   1.00
H448   H     0.51465   0.38336   0.19884   0.00000  Uiso   1.00
H449   H     0.62191   0.37813   0.40494   0.00000  Uiso   1.00
H450   H     0.62869   0.21235   0.27881   0.00000  Uiso   1.00
H451   H     0.72315   0.20842   0.31858   0.00000  Uiso   1.00
H452   H     0.51620   0.38187   0.44837   0.00000  Uiso   1.00
H453   H     0.72094   0.20516   0.07479   0.00000  Uiso   1.00
H454   H     0.62847   0.21370   0.03253   0.00000  Uiso   1.00
H455   H     0.68084   0.39871   0.23718   0.00000  Uiso   1.00
H456   H     0.53047   0.36911   0.69392   0.00000  Uiso   1.00
H457   H     0.56250   0.23310   0.86611   0.00000  Uiso   1.00
H458   H     0.73126   0.21136   0.57174   0.00000  Uiso   1.00
H459   H     0.55901   0.22897   0.61583   0.00000  Uiso   1.00
H460   H     0.61606   0.38410   0.90027   0.00000  Uiso   1.00
H461   H     0.62384   0.20129   0.52599   0.00000  Uiso   1.00
H462   H     0.52435   0.38048   0.94771   0.00000  Uiso   1.00
H463   H     0.62761   0.37269   0.65596   0.00000  Uiso   1.00
H464   H     0.73009   0.21206   0.81814   0.00000  Uiso   1.00
H465   H     0.63085   0.21637   0.78065   0.00000  Uiso   1.00
H466   H     0.58574   0.58187   0.36064   0.00000  Uiso   1.00
H467   H     0.62239   0.53380   0.03244   0.00000  Uiso   1.00
H468   H     0.73910   0.54786   0.31850   0.00000  Uiso   1.00
H469   H     0.63629   0.54667   0.27915   0.00000  Uiso   1.00
H470   H     0.56597   0.55913   0.11273   0.00000  Uiso   1.00
H471   H     0.72803   0.54318   0.06934   0.00000  Uiso   1.00
H472   H     0.66983   0.41237   0.48498   0.00000  Uiso   1.00
H473   H     0.63025   0.53687   0.52894   0.00000  Uiso   1.00
H474   H     0.62717   0.52257   0.76902   0.00000  Uiso   1.00
H475   H     0.57438   0.57760   0.60820   0.00000  Uiso   1.00
H476   H     0.74246   0.54962   0.81680   0.00000  Uiso   1.00
H477   H     0.57402   0.57383   0.85942   0.00000  Uiso   1.00
H478   H     0.67681   0.41271   0.98437   0.00000  Uiso   1.00
H479   H     0.73875   0.54894   0.57254   0.00000  Uiso   1.00
H480   H     0.68541   0.40322   0.73371   0.00000  Uiso   1.00
H481   H     0.52779   0.70047   0.44435   0.00000  Uiso   1.00
H482   H     0.62198   0.70781   0.15542   0.00000  Uiso   1.00
H483   H     0.67932   0.73086   0.23189   0.00000  Uiso   1.00
H484   H     0.61379   0.71350   0.40367   0.00000  Uiso   1.00
H485   H     0.68012   0.73118   0.48959   0.00000  Uiso   1.00
H486   H     0.51552   0.71061   0.19080   0.00000  Uiso   1.00
H487   H     0.51730   0.71209   0.94190   0.00000  Uiso   1.00
H488   H     0.61335   0.71399   0.65522   0.00000  Uiso   1.00
H489   H     0.67207   0.74827   0.73689   0.00000  Uiso   1.00
H490   H     0.61597   0.70504   0.90143   0.00000  Uiso   1.00
H491   H     0.51221   0.71073   0.69239   0.00000  Uiso   1.00
H492   H     0.67812   0.73694   0.98448   0.00000  Uiso   1.00
H493   H     0.56894   0.90007   0.10968   0.00000  Uiso   1.00
H494   H     0.63462   0.87595   0.02788   0.00000  Uiso   1.00
H495   H     0.57193   0.91063   0.36489   0.00000  Uiso   1.00
H496   H     0.62907   0.87676   0.28047   0.00000  Uiso   1.00
H497   H     0.73404   0.87351   0.07511   0.00000  Uiso   1.00
H498   H     0.73134   0.87671   0.31965   0.00000  Uiso   1.00
H499   H     0.57621   0.91224   0.60649   0.00000  Uiso   1.00
H500   H     0.63247   0.87490   0.52812   0.00000  Uiso   1.00
H501   H     0.56504   0.89455   0.86173   0.00000  Uiso   1.00
H502   H     0.62513   0.86145   0.77006   0.00000  Uiso   1.00
H503   H     0.72693   0.87577   0.81919   0.00000  Uiso   1.00
H504   H     0.73190   0.87687   0.56853   0.00000  Uiso   1.00
H505   H     0.91973   0.09113   0.23798   0.00000  Uiso   1.00
H506   H     0.87133   0.12593   0.15489   0.00000  Uiso   1.00
H507   H     0.93840   0.10936   0.49145   0.00000  Uiso   1.00
H508   H     0.87538   0.14580   0.40217   0.00000  Uiso   1.00
H509   H     0.78305   0.13245   0.19448   0.00000  Uiso   1.00
H510   H     0.77196   0.12410   0.44695   0.00000  Uiso   1.00
H511   H     0.76097   0.12345   0.94333   0.00000  Uiso   1.00
H512   H     0.92564   0.09174   0.73855   0.00000  Uiso   1.00
H513   H     0.86961   0.12898   0.65592   0.00000  Uiso   1.00
H514   H     0.86366   0.12239   0.90428   0.00000  Uiso   1.00
H515   H     0.76582   0.12186   0.69395   0.00000  Uiso   1.00
H516   H     0.93807   0.10744   0.99045   0.00000  Uiso   1.00
H517   H     0.87990   0.29764   0.02683   0.00000  Uiso   1.00
H518   H     0.81548   0.27002   0.11367   0.00000  Uiso   1.00
H519   H     0.89298   0.27263   0.27066   0.00000  Uiso   1.00
H520   H     0.82488   0.25274   0.35817   0.00000  Uiso   1.00
H521   H     0.98190   0.28901   0.06679   0.00000  Uiso   1.00
H522   H     0.99104   0.28575   0.32132   0.00000  Uiso   1.00
H523   H     0.87922   0.30144   0.52569   0.00000  Uiso   1.00
H524   H     0.81694   0.26914   0.61287   0.00000  Uiso   1.00
H525   H     0.87876   0.29854   0.78099   0.00000  Uiso   1.00
H526   H     0.82171   0.25950   0.86182   0.00000  Uiso   1.00
H527   H     0.98479   0.28750   0.82471   0.00000  Uiso   1.00
H528   H     0.96824   0.29620   0.56980   0.00000  Uiso   1.00
H529   H     0.86942   0.45637   0.15595   0.00000  Uiso   1.00
H530   H     0.87566   0.46472   0.40340   0.00000  Uiso   1.00
H531   H     0.94120   0.44572   0.49049   0.00000  Uiso   1.00
H532   H     0.77510   0.45838   0.19404   0.00000  Uiso   1.00
H533   H     0.77049   0.45754   0.44371   0.00000  Uiso   1.00
H534   H     0.92536   0.42475   0.22970   0.00000  Uiso   1.00
H535   H     0.83098   0.58639   0.10781   0.00000  Uiso   1.00
H536   H     0.82556   0.59298   0.36022   0.00000  Uiso   1.00
H537   H     0.76640   0.45706   0.69360   0.00000  Uiso   1.00
H538   H     0.86656   0.44872   0.65162   0.00000  Uiso   1.00
H539   H     0.91036   0.41274   0.72805   0.00000  Uiso   1.00
H540   H     0.87602   0.47389   0.89455   0.00000  Uiso   1.00
H541   H     0.94089   0.44216   0.98945   0.00000  Uiso   1.00
H542   H     0.82726   0.59487   0.60249   0.00000  Uiso   1.00
H543   H     0.77781   0.46318   0.93841   0.00000  Uiso   1.00
H544   H     0.76756   0.78653   0.19675   0.00000  Uiso   1.00
H545   H     0.87126   0.64150   0.27684   0.00000  Uiso   1.00
H546   H     0.97376   0.62241   0.07211   0.00000  Uiso   1.00
H547   H     0.92524   0.76243   0.22746   0.00000  Uiso   1.00
H548   H     0.77131   0.79068   0.44833   0.00000  Uiso   1.00
H549   H     0.93018   0.76350   0.48321   0.00000  Uiso   1.00
H550   H     0.88029   0.61874   0.02573   0.00000  Uiso   1.00
H551   H     0.97879   0.62301   0.32032   0.00000  Uiso   1.00
H552   H     0.86888   0.78467   0.15727   0.00000  Uiso   1.00
H553   H     0.87171   0.79691   0.40046   0.00000  Uiso   1.00
H554   H     0.77092   0.78653   0.94946   0.00000  Uiso   1.00
H555   H     0.91888   0.75143   0.73315   0.00000  Uiso   1.00
H556   H     0.87795   0.63105   0.77962   0.00000  Uiso   1.00
H557   H     0.93590   0.77025   0.98928   0.00000  Uiso   1.00
H558   H     0.97441   0.62529   0.81888   0.00000  Uiso   1.00
H559   H     0.98766   0.62266   0.56457   0.00000  Uiso   1.00
H560   H     0.88215   0.62940   0.52551   0.00000  Uiso   1.00
H561   H     0.76428   0.78644   0.69443   0.00000  Uiso   1.00
H562   H     0.86698   0.78810   0.65087   0.00000  Uiso   1.00
H563   H     0.80112   0.61720   0.86690   0.00000  Uiso   1.00
H564   H     0.97354   0.96113   0.32388   0.00000  Uiso   1.00
H565   H     0.88291   0.95601   0.03273   0.00000  Uiso   1.00
H566   H     0.83740   0.91843   0.11172   0.00000  Uiso   1.00
H567   H     0.87375   0.97250   0.28367   0.00000  Uiso   1.00
H568   H     0.81298   0.93824   0.36189   0.00000  Uiso   1.00
H569   H     0.98064   0.95945   0.07577   0.00000  Uiso   1.00
H570   H     0.88452   0.94689   0.52992   0.00000  Uiso   1.00
H571   H     0.83124   0.92842   0.60996   0.00000  Uiso   1.00
H572   H     0.88268   0.95347   0.78169   0.00000  Uiso   1.00
H573   H     0.82073   0.92655   0.86397   0.00000  Uiso   1.00
H574   H     0.98919   0.95624   0.57572   0.00000  Uiso   1.00
H575   H     0.97358   0.96111   0.82278   0.00000  Uiso   1.00
H576   H     0.87713   0.80881   0.89930   0.00000  Uiso   1.00
C577   C     0.18054   0.18804   0.19416   0.00000  Uiso   1.00
C578   C     0.13328   0.05138   0.12073   0.00000  Uiso   1.00
C579   C     0.17430   0.06028   0.11699   0.00000  Uiso   1.00
C580   C     0.13631   0.03347   0.03017   0.00000  Uiso   1.00
C581   C     0.17285   0.05323   0.02282   0.00000  Uiso   1.00
C582   C     0.07185   0.02428   0.07640   0.00000  Uiso   1.00
C583   C     0.11255   0.03923   0.07450   0.00000  Uiso   1.00
C584   C     0.21977   0.10308   0.06874   0.00000  Uiso   1.00
C585   C     0.18793   0.07239   0.06910   0.00000  Uiso   1.00
C586   C     0.13908   0.03798   0.36849   0.00000  Uiso   1.00
C587   C     0.17861   0.05226   0.36436   0.00000  Uiso   1.00
C588   C     0.13653   0.03687   0.27506   0.00000  Uiso   1.00
C589   C     0.16628   0.06298   0.27286   0.00000  Uiso   1.00
C590   C     0.07430   0.02045   0.32373   0.00000  Uiso   1.00
C591   C     0.11633   0.03061   0.32220   0.00000  Uiso   1.00
C592   C     0.21591   0.10603   0.32108   0.00000  Uiso   1.00
C593   C     0.18961   0.07116   0.31759   0.00000  Uiso   1.00
C594   C     0.17919   0.19230   0.44525   0.00000  Uiso   1.00
C595   C     0.18100   0.18831   0.94728   0.00000  Uiso   1.00
C596   C     0.18040   0.19120   0.69729   0.00000  Uiso   1.00
C597   C     0.13368   0.04949   0.61703   0.00000  Uiso   1.00
C598   C     0.17413   0.05949   0.61422   0.00000  Uiso   1.00
C599   C     0.13299   0.03864   0.52485   0.00000  Uiso   1.00
C600   C     0.16309   0.06508   0.52201   0.00000  Uiso   1.00
C601   C     0.06929   0.02648   0.57365   0.00000  Uiso   1.00
C602   C     0.11158   0.03923   0.57260   0.00000  Uiso   1.00
C603   C     0.21691   0.10527   0.56878   0.00000  Uiso   1.00
C604   C     0.18534   0.07513   0.56718   0.00000  Uiso   1.00
C605   C     0.13971   0.04072   0.86518   0.00000  Uiso   1.00
C606   C     0.18000   0.05269   0.85784   0.00000  Uiso   1.00
C607   C     0.13096   0.04278   0.77249   0.00000  Uiso   1.00
C608   C     0.16488   0.06750   0.76908   0.00000  Uiso   1.00
C609   C     0.07080   0.02490   0.82555   0.00000  Uiso   1.00
C610   C     0.11358   0.03768   0.82200   0.00000  Uiso   1.00
C611   C     0.21997   0.10222   0.81630   0.00000  Uiso   1.00
C612   C     0.19059   0.07193   0.81242   0.00000  Uiso   1.00
C613   C     0.11329   0.19634   0.90205   0.00000  Uiso   1.00
C614   C     0.11703   0.20947   0.49343   0.00000  Uiso   1.00
C615   C     0.13434   0.38233   0.36394   0.00000  Uiso   1.00
C616   C     0.07611   0.22370   0.49183   0.00000  Uiso   1.00
C617   C     0.08722   0.23267   0.14550   0.00000  Uiso   1.00
C618   C     0.13997   0.36782   0.27440   0.00000  Uiso   1.00
C619   C     0.17617   0.39157   0.36221   0.00000  Uiso   1.00
C620   C     0.03452   0.27002   0.19401   0.00000  Uiso   1.00
C621   C     0.06390   0.23827   0.19031   0.00000  Uiso   1.00
C622   C     0.13535   0.20083   0.44596   0.00000  Uiso   1.00
C623   C     0.07565   0.21929   0.23533   0.00000  Uiso   1.00
C624   C     0.07537   0.35447   0.07253   0.00000  Uiso   1.00
C625   C     0.11720   0.36395   0.07293   0.00000  Uiso   1.00
C626   C     0.18078   0.38226   0.11646   0.00000  Uiso   1.00
C627   C     0.08187   0.22889   0.39941   0.00000  Uiso   1.00
C628   C     0.13491   0.37013   0.02523   0.00000  Uiso   1.00
C629   C     0.14024   0.36693   0.11783   0.00000  Uiso   1.00
C630   C     0.03419   0.27170   0.44577   0.00000  Uiso   1.00
C631   C     0.06345   0.24132   0.44563   0.00000  Uiso   1.00
C632   C     0.07500   0.35599   0.31766   0.00000  Uiso   1.00
C633   C     0.11630   0.36968   0.31872   0.00000  Uiso   1.00
C634   C     0.11527   0.20282   0.24091   0.00000  Uiso   1.00
C635   C     0.11387   0.20365   0.40098   0.00000  Uiso   1.00
C636   C     0.17266   0.39142   0.26997   0.00000  Uiso   1.00
C637   C     0.12205   0.21011   0.14599   0.00000  Uiso   1.00
C638   C     0.13949   0.20222   0.19326   0.00000  Uiso   1.00
C639   C     0.17013   0.39332   0.02466   0.00000  Uiso   1.00
C640   C     0.13648   0.37517   0.87110   0.00000  Uiso   1.00
C641   C     0.11770   0.20355   0.64736   0.00000  Uiso   1.00
C642   C     0.17549   0.39026   0.87094   0.00000  Uiso   1.00
C643   C     0.08171   0.22854   0.98825   0.00000  Uiso   1.00
C644   C     0.17862   0.38083   0.61104   0.00000  Uiso   1.00
C645   C     0.08455   0.22700   0.64343   0.00000  Uiso   1.00
C646   C     0.14280   0.36032   0.78172   0.00000  Uiso   1.00
C647   C     0.03620   0.26844   0.68925   0.00000  Uiso   1.00
C648   C     0.06300   0.23474   0.68925   0.00000  Uiso   1.00
C649   C     0.07224   0.21527   0.73427   0.00000  Uiso   1.00
C650   C     0.07370   0.35360   0.57019   0.00000  Uiso   1.00
C651   C     0.11805   0.36291   0.57012   0.00000  Uiso   1.00
C652   C     0.13931   0.36895   0.61545   0.00000  Uiso   1.00
C653   C     0.07893   0.22033   0.89634   0.00000  Uiso   1.00
C654   C     0.13712   0.36725   0.52259   0.00000  Uiso   1.00
C655   C     0.03567   0.26972   0.94053   0.00000  Uiso   1.00
C656   C     0.06632   0.23982   0.94221   0.00000  Uiso   1.00
C657   C     0.07202   0.35788   0.81925   0.00000  Uiso   1.00
C658   C     0.11592   0.36608   0.82216   0.00000  Uiso   1.00
C659   C     0.17012   0.38988   0.52017   0.00000  Uiso   1.00
C660   C     0.12165   0.21945   0.98876   0.00000  Uiso   1.00
C661   C     0.17758   0.38423   0.78016   0.00000  Uiso   1.00
C662   C     0.11256   0.20551   0.74072   0.00000  Uiso   1.00
C663   C     0.13657   0.20264   0.69651   0.00000  Uiso   1.00
C664   C     0.13891   0.20185   0.94699   0.00000  Uiso   1.00
C665   C     0.19139   0.39864   0.56543   0.00000  Uiso   1.00
C666   C     0.21559   0.43768   0.31665   0.00000  Uiso   1.00
C667   C     0.11232   0.53329   0.15292   0.00000  Uiso   1.00
C668   C     0.08070   0.55916   0.14663   0.00000  Uiso   1.00
C669   C     0.11562   0.54250   0.49435   0.00000  Uiso   1.00
C670   C     0.17664   0.52184   0.19644   0.00000  Uiso   1.00
C671   C     0.13376   0.53081   0.19964   0.00000  Uiso   1.00
C672   C     0.05740   0.56683   0.19358   0.00000  Uiso   1.00
C673   C     0.19286   0.40029   0.07020   0.00000  Uiso   1.00
C674   C     0.11138   0.54005   0.24439   0.00000  Uiso   1.00
C675   C     0.06963   0.55030   0.23956   0.00000  Uiso   1.00
C676   C     0.22012   0.43480   0.06974   0.00000  Uiso   1.00
C677   C     0.11711   0.53539   0.40143   0.00000  Uiso   1.00
C678   C     0.08414   0.56128   0.39664   0.00000  Uiso   1.00
C679   C     0.17941   0.52091   0.44845   0.00000  Uiso   1.00
C680   C     0.13778   0.53417   0.44736   0.00000  Uiso   1.00
C681   C     0.06590   0.57530   0.44184   0.00000  Uiso   1.00
C682   C     0.07755   0.55956   0.49021   0.00000  Uiso   1.00
C683   C     0.18913   0.40561   0.31698   0.00000  Uiso   1.00
C684   C     0.02867   0.59791   0.19456   0.00000  Uiso   1.00
C685   C     0.21853   0.43483   0.82485   0.00000  Uiso   1.00
C686   C     0.11532   0.53558   0.65118   0.00000  Uiso   1.00
C687   C     0.08472   0.56203   0.64955   0.00000  Uiso   1.00
C688   C     0.17880   0.51701   0.69757   0.00000  Uiso   1.00
C689   C     0.13702   0.53193   0.69884   0.00000  Uiso   1.00
C690   C     0.06694   0.57652   0.69438   0.00000  Uiso   1.00
C691   C     0.11853   0.54506   0.74319   0.00000  Uiso   1.00
C692   C     0.07966   0.55893   0.74119   0.00000  Uiso   1.00
C693   C     0.21812   0.43274   0.56831   0.00000  Uiso   1.00
C694   C     0.11456   0.53501   0.89260   0.00000  Uiso   1.00
C695   C     0.08134   0.55965   0.89154   0.00000  Uiso   1.00
C696   C     0.17633   0.51756   0.94426   0.00000  Uiso   1.00
C697   C     0.13341   0.53165   0.94093   0.00000  Uiso   1.00
C698   C     0.05803   0.56810   0.93710   0.00000  Uiso   1.00
C699   C     0.10865   0.53897   0.98706   0.00000  Uiso   1.00
C700   C     0.06874   0.54862   0.98128   0.00000  Uiso   1.00
C701   C     0.19061   0.40348   0.82640   0.00000  Uiso   1.00
C702   C     0.02845   0.59865   0.94094   0.00000  Uiso   1.00
C703   C     0.13510   0.70084   0.11962   0.00000  Uiso   1.00
C704   C     0.17499   0.71493   0.11895   0.00000  Uiso   1.00
C705   C     0.13488   0.70222   0.02702   0.00000  Uiso   1.00
C706   C     0.16628   0.72870   0.02896   0.00000  Uiso   1.00
C707   C     0.07057   0.68402   0.07146   0.00000  Uiso   1.00
C708   C     0.11381   0.69736   0.07278   0.00000  Uiso   1.00
C709   C     0.21418   0.76899   0.07740   0.00000  Uiso   1.00
C710   C     0.18526   0.73684   0.07620   0.00000  Uiso   1.00
C711   C     0.12991   0.71976   0.36859   0.00000  Uiso   1.00
C712   C     0.16896   0.73065   0.37165   0.00000  Uiso   1.00
C713   C     0.13998   0.69963   0.27898   0.00000  Uiso   1.00
C714   C     0.17608   0.71988   0.28049   0.00000  Uiso   1.00
C715   C     0.07106   0.68929   0.31836   0.00000  Uiso   1.00
C716   C     0.11387   0.70256   0.32278   0.00000  Uiso   1.00
C717   C     0.21221   0.77479   0.32517   0.00000  Uiso   1.00
C718   C     0.18566   0.74063   0.32606   0.00000  Uiso   1.00
C719   C     0.04056   0.60727   0.44106   0.00000  Uiso   1.00
C720   C     0.13556   0.71328   0.61911   0.00000  Uiso   1.00
C721   C     0.17530   0.72578   0.61972   0.00000  Uiso   1.00
C722   C     0.13964   0.69944   0.52575   0.00000  Uiso   1.00
C723   C     0.17441   0.72365   0.52381   0.00000  Uiso   1.00
C724   C     0.07432   0.69039   0.57223   0.00000  Uiso   1.00
C725   C     0.11738   0.69951   0.57285   0.00000  Uiso   1.00
C726   C     0.21737   0.77014   0.57361   0.00000  Uiso   1.00
C727   C     0.18959   0.73759   0.57300   0.00000  Uiso   1.00
C728   C     0.13783   0.69796   0.86970   0.00000  Uiso   1.00
C729   C     0.17634   0.71336   0.86793   0.00000  Uiso   1.00
C730   C     0.13421   0.69931   0.77563   0.00000  Uiso   1.00
C731   C     0.16850   0.72259   0.77491   0.00000  Uiso   1.00
C732   C     0.07097   0.68674   0.82162   0.00000  Uiso   1.00
C733   C     0.11397   0.69553   0.82261   0.00000  Uiso   1.00
C734   C     0.21357   0.76682   0.82574   0.00000  Uiso   1.00
C735   C     0.18878   0.73212   0.82150   0.00000  Uiso   1.00
C736   C     0.03697   0.60556   0.69309   0.00000  Uiso   1.00
C737   C     0.11789   0.87525   0.15272   0.00000  Uiso   1.00
C738   C     0.08777   0.90249   0.14850   0.00000  Uiso   1.00
C739   C     0.17749   0.85714   0.20135   0.00000  Uiso   1.00
C740   C     0.13691   0.87043   0.20123   0.00000  Uiso   1.00
C741   C     0.03704   0.94326   0.19642   0.00000  Uiso   1.00
C742   C     0.06684   0.91311   0.19522   0.00000  Uiso   1.00
C743   C     0.11353   0.87988   0.24540   0.00000  Uiso   1.00
C744   C     0.07504   0.89424   0.23892   0.00000  Uiso   1.00
C745   C     0.10711   0.86485   0.40805   0.00000  Uiso   1.00
C746   C     0.07267   0.88695   0.40366   0.00000  Uiso   1.00
C747   C     0.17518   0.85660   0.45151   0.00000  Uiso   1.00
C748   C     0.13110   0.86686   0.45385   0.00000  Uiso   1.00
C749   C     0.02962   0.93580   0.45161   0.00000  Uiso   1.00
C750   C     0.05662   0.90283   0.45078   0.00000  Uiso   1.00
C751   C     0.06955   0.88809   0.49767   0.00000  Uiso   1.00
C752   C     0.11612   0.87993   0.00186   0.00000  Uiso   1.00
C753   C     0.11273   0.86986   0.65277   0.00000  Uiso   1.00
C754   C     0.08365   0.89780   0.65013   0.00000  Uiso   1.00
C755   C     0.17599   0.85316   0.69884   0.00000  Uiso   1.00
C756   C     0.13366   0.86503   0.69918   0.00000  Uiso   1.00
C757   C     0.03475   0.94000   0.69502   0.00000  Uiso   1.00
C758   C     0.06236   0.90887   0.69551   0.00000  Uiso   1.00
C759   C     0.11095   0.87560   0.74621   0.00000  Uiso   1.00
C760   C     0.07242   0.89197   0.74132   0.00000  Uiso   1.00
C761   C     0.10840   0.86143   0.91338   0.00000  Uiso   1.00
C762   C     0.07624   0.88683   0.90915   0.00000  Uiso   1.00
C763   C     0.17481   0.85161   0.95558   0.00000  Uiso   1.00
C764   C     0.13290   0.86336   0.95681   0.00000  Uiso   1.00
C765   C     0.03578   0.93845   0.95001   0.00000  Uiso   1.00
C766   C     0.06105   0.90501   0.95210   0.00000  Uiso   1.00
C767   C     0.10941   0.87589   0.50064   0.00000  Uiso   1.00
C768   C     0.07686   0.89337   0.99974   0.00000  Uiso   1.00
C769   C     0.39015   0.13269   0.01995   0.00000  Uiso   1.00
C770   C     0.42152   0.10603   0.01555   0.00000  Uiso   1.00
C771   C     0.32454   0.14327   0.06744   0.00000  Uiso   1.00
C772   C     0.36784   0.13360   0.06718   0.00000  Uiso   1.00
C773   C     0.46624   0.06043   0.06534   0.00000  Uiso   1.00
C774   C     0.44044   0.09411   0.06360   0.00000  Uiso   1.00
C775   C     0.39248   0.12648   0.11302   0.00000  Uiso   1.00
C776   C     0.42963   0.11219   0.10877   0.00000  Uiso   1.00
C777   C     0.39049   0.13388   0.27566   0.00000  Uiso   1.00
C778   C     0.42457   0.10985   0.27350   0.00000  Uiso   1.00
C779   C     0.32386   0.14451   0.31963   0.00000  Uiso   1.00
C780   C     0.36734   0.13326   0.32093   0.00000  Uiso   1.00
C781   C     0.46772   0.06207   0.32213   0.00000  Uiso   1.00
C782   C     0.44163   0.09460   0.32087   0.00000  Uiso   1.00
C783   C     0.38569   0.12210   0.37027   0.00000  Uiso   1.00
C784   C     0.42766   0.10965   0.36937   0.00000  Uiso   1.00
C785   C     0.39164   0.13751   0.52597   0.00000  Uiso   1.00
C786   C     0.42354   0.11031   0.52384   0.00000  Uiso   1.00
C787   C     0.32392   0.14355   0.56795   0.00000  Uiso   1.00
C788   C     0.36833   0.13512   0.57017   0.00000  Uiso   1.00
C789   C     0.46540   0.06199   0.57149   0.00000  Uiso   1.00
C790   C     0.43940   0.09522   0.57023   0.00000  Uiso   1.00
C791   C     0.38618   0.12059   0.61686   0.00000  Uiso   1.00
C792   C     0.42613   0.11031   0.61415   0.00000  Uiso   1.00
C793   C     0.38791   0.12936   0.77544   0.00000  Uiso   1.00
C794   C     0.41425   0.09867   0.76981   0.00000  Uiso   1.00
C795   C     0.32369   0.14635   0.81912   0.00000  Uiso   1.00
C796   C     0.36658   0.13393   0.82040   0.00000  Uiso   1.00
C797   C     0.46277   0.05704   0.81727   0.00000  Uiso   1.00
C798   C     0.43456   0.08882   0.81515   0.00000  Uiso   1.00
C799   C     0.38659   0.12193   0.86574   0.00000  Uiso   1.00
C800   C     0.42442   0.10528   0.86273   0.00000  Uiso   1.00
C801   C     0.36839   0.29066   0.24035   0.00000  Uiso   1.00
C802   C     0.32925   0.27750   0.23903   0.00000  Uiso   1.00
C803   C     0.36491   0.30095   0.14802   0.00000  Uiso   1.00
C804   C     0.33098   0.27766   0.14708   0.00000  Uiso   1.00
C805   C     0.42890   0.31627   0.19507   0.00000  Uiso   1.00
C806   C     0.38583   0.30437   0.19570   0.00000  Uiso   1.00
C807   C     0.28567   0.23087   0.19509   0.00000  Uiso   1.00
C808   C     0.31443   0.26312   0.19467   0.00000  Uiso   1.00
C809   C     0.46718   0.39861   0.31942   0.00000  Uiso   1.00
C810   C     0.36777   0.29501   0.39782   0.00000  Uiso   1.00
C811   C     0.33747   0.26951   0.39469   0.00000  Uiso   1.00
C812   C     0.42849   0.31464   0.44647   0.00000  Uiso   1.00
C813   C     0.38641   0.30273   0.44615   0.00000  Uiso   1.00
C814   C     0.28666   0.22936   0.44127   0.00000  Uiso   1.00
C815   C     0.31580   0.26232   0.44031   0.00000  Uiso   1.00
C816   C     0.32525   0.28162   0.48479   0.00000  Uiso   1.00
C817   C     0.36321   0.29762   0.49056   0.00000  Uiso   1.00
C818   C     0.32595   0.27591   0.98945   0.00000  Uiso   1.00
C819   C     0.36350   0.29492   0.74323   0.00000  Uiso   1.00
C820   C     0.32469   0.28080   0.74040   0.00000  Uiso   1.00
C821   C     0.36716   0.29556   0.64933   0.00000  Uiso   1.00
C822   C     0.33548   0.27101   0.64949   0.00000  Uiso   1.00
C823   C     0.42926   0.31274   0.69791   0.00000  Uiso   1.00
C824   C     0.38694   0.29933   0.69716   0.00000  Uiso   1.00
C825   C     0.28552   0.23001   0.69449   0.00000  Uiso   1.00
C826   C     0.31270   0.26335   0.69486   0.00000  Uiso   1.00
C827   C     0.36154   0.29612   0.99359   0.00000  Uiso   1.00
C828   C     0.36499   0.29765   0.90041   0.00000  Uiso   1.00
C829   C     0.33130   0.27348   0.89842   0.00000  Uiso   1.00
C830   C     0.42904   0.31448   0.94675   0.00000  Uiso   1.00
C831   C     0.38604   0.30073   0.94693   0.00000  Uiso   1.00
C832   C     0.28628   0.22608   0.94429   0.00000  Uiso   1.00
C833   C     0.31399   0.25909   0.94462   0.00000  Uiso   1.00
C834   C     0.46464   0.39582   0.57226   0.00000  Uiso   1.00
C835   C     0.28554   0.55844   0.44781   0.00000  Uiso   1.00
C836   C     0.42672   0.44564   0.36647   0.00000  Uiso   1.00
C837   C     0.39231   0.47698   0.02822   0.00000  Uiso   1.00
C838   C     0.42699   0.45291   0.02653   0.00000  Uiso   1.00
C839   C     0.32324   0.48532   0.07015   0.00000  Uiso   1.00
C840   C     0.36719   0.47406   0.07020   0.00000  Uiso   1.00
C841   C     0.44093   0.43445   0.07191   0.00000  Uiso   1.00
C842   C     0.38506   0.46339   0.11846   0.00000  Uiso   1.00
C843   C     0.42547   0.45201   0.11743   0.00000  Uiso   1.00
C844   C     0.28266   0.56342   0.19580   0.00000  Uiso   1.00
C845   C     0.38709   0.45904   0.36928   0.00000  Uiso   1.00
C846   C     0.38685   0.46473   0.27594   0.00000  Uiso   1.00
C847   C     0.41956   0.44199   0.27380   0.00000  Uiso   1.00
C848   C     0.32261   0.47683   0.32059   0.00000  Uiso   1.00
C849   C     0.36669   0.46642   0.32302   0.00000  Uiso   1.00
C850   C     0.43904   0.43031   0.32045   0.00000  Uiso   1.00
C851   C     0.31366   0.59061   0.44451   0.00000  Uiso   1.00
C852   C     0.47060   0.40324   0.07060   0.00000  Uiso   1.00
C853   C     0.31387   0.59385   0.19573   0.00000  Uiso   1.00
C854   C     0.33206   0.59971   0.39703   0.00000  Uiso   1.00
C855   C     0.43214   0.45574   0.85918   0.00000  Uiso   1.00
C856   C     0.38801   0.46318   0.52742   0.00000  Uiso   1.00
C857   C     0.42182   0.44026   0.52557   0.00000  Uiso   1.00
C858   C     0.32192   0.47481   0.57326   0.00000  Uiso   1.00
C859   C     0.36647   0.46582   0.57500   0.00000  Uiso   1.00
C860   C     0.44106   0.43022   0.57191   0.00000  Uiso   1.00
C861   C     0.38874   0.46222   0.62234   0.00000  Uiso   1.00
C862   C     0.39047   0.46501   0.86787   0.00000  Uiso   1.00
C863   C     0.42894   0.44754   0.61935   0.00000  Uiso   1.00
C864   C     0.27882   0.56082   0.69529   0.00000  Uiso   1.00
C865   C     0.28081   0.56539   0.94083   0.00000  Uiso   1.00
C866   C     0.38811   0.46466   0.77420   0.00000  Uiso   1.00
C867   C     0.42064   0.44064   0.77118   0.00000  Uiso   1.00
C868   C     0.32396   0.48095   0.82337   0.00000  Uiso   1.00
C869   C     0.36707   0.46843   0.82216   0.00000  Uiso   1.00
C870   C     0.44264   0.43405   0.81648   0.00000  Uiso   1.00
C871   C     0.30704   0.59884   0.93776   0.00000  Uiso   1.00
C872   C     0.30952   0.59185   0.69340   0.00000  Uiso   1.00
C873   C     0.46763   0.40132   0.82006   0.00000  Uiso   1.00
C874   C     0.36612   0.62095   0.24234   0.00000  Uiso   1.00
C875   C     0.36457   0.79660   0.07727   0.00000  Uiso   1.00
C876   C     0.38761   0.79019   0.12265   0.00000  Uiso   1.00
C877   C     0.38482   0.79705   0.02894   0.00000  Uiso   1.00
C878   C     0.36541   0.62336   0.39751   0.00000  Uiso   1.00
C879   C     0.42968   0.64216   0.19219   0.00000  Uiso   1.00
C880   C     0.38473   0.63255   0.19499   0.00000  Uiso   1.00
C881   C     0.41728   0.77205   0.02199   0.00000  Uiso   1.00
C882   C     0.46668   0.72718   0.06410   0.00000  Uiso   1.00
C883   C     0.43992   0.75987   0.06578   0.00000  Uiso   1.00
C884   C     0.42816   0.77807   0.11492   0.00000  Uiso   1.00
C885   C     0.42691   0.64081   0.44259   0.00000  Uiso   1.00
C886   C     0.38383   0.63004   0.44335   0.00000  Uiso   1.00
C887   C     0.41564   0.77422   0.27313   0.00000  Uiso   1.00
C888   C     0.35909   0.63765   0.15023   0.00000  Uiso   1.00
C889   C     0.46469   0.72942   0.31649   0.00000  Uiso   1.00
C890   C     0.43486   0.75936   0.31840   0.00000  Uiso   1.00
C891   C     0.42024   0.77048   0.36774   0.00000  Uiso   1.00
C892   C     0.32705   0.60713   0.24234   0.00000  Uiso   1.00
C893   C     0.36179   0.63019   0.48880   0.00000  Uiso   1.00
C894   C     0.32588   0.60949   0.48860   0.00000  Uiso   1.00
C895   C     0.38147   0.78429   0.37104   0.00000  Uiso   1.00
C896   C     0.36261   0.79817   0.32718   0.00000  Uiso   1.00
C897   C     0.32611   0.61211   0.14899   0.00000  Uiso   1.00
C898   C     0.38364   0.79915   0.28032   0.00000  Uiso   1.00
C899   C     0.35790   0.62926   0.99036   0.00000  Uiso   1.00
C900   C     0.38760   0.79002   0.87046   0.00000  Uiso   1.00
C901   C     0.32970   0.60497   0.89199   0.00000  Uiso   1.00
C902   C     0.36222   0.79416   0.82578   0.00000  Uiso   1.00
C903   C     0.36382   0.62930   0.89545   0.00000  Uiso   1.00
C904   C     0.42516   0.64199   0.69439   0.00000  Uiso   1.00
C905   C     0.38215   0.63069   0.69632   0.00000  Uiso   1.00
C906   C     0.41288   0.77053   0.52354   0.00000  Uiso   1.00
C907   C     0.46139   0.72687   0.57117   0.00000  Uiso   1.00
C908   C     0.43124   0.75682   0.57039   0.00000  Uiso   1.00
C909   C     0.36315   0.61786   0.74380   0.00000  Uiso   1.00
C910   C     0.42360   0.77497   0.61568   0.00000  Uiso   1.00
C911   C     0.42443   0.64591   0.94387   0.00000  Uiso   1.00
C912   C     0.38174   0.63221   0.94402   0.00000  Uiso   1.00
C913   C     0.41394   0.76852   0.77092   0.00000  Uiso   1.00
C914   C     0.36073   0.62859   0.64823   0.00000  Uiso   1.00
C915   C     0.46482   0.72614   0.81675   0.00000  Uiso   1.00
C916   C     0.43957   0.76116   0.81469   0.00000  Uiso   1.00
C917   C     0.42803   0.77762   0.86254   0.00000  Uiso   1.00
C918   C     0.32292   0.60769   0.73957   0.00000  Uiso   1.00
C919   C     0.38247   0.79833   0.52664   0.00000  Uiso   1.00
C920   C     0.31852   0.61750   0.98528   0.00000  Uiso   1.00
C921   C     0.38143   0.79477   0.77785   0.00000  Uiso   1.00
C922   C     0.38667   0.79257   0.61976   0.00000  Uiso   1.00
C923   C     0.32978   0.60190   0.64728   0.00000  Uiso   1.00
C924   C     0.36407   0.95729   0.49455   0.00000  Uiso   1.00
C925   C     0.36524   0.96105   0.24131   0.00000  Uiso   1.00
C926   C     0.32549   0.94710   0.23672   0.00000  Uiso   1.00
C927   C     0.36779   0.96328   0.14661   0.00000  Uiso   1.00
C928   C     0.33765   0.93564   0.14624   0.00000  Uiso   1.00
C929   C     0.43101   0.97912   0.19540   0.00000  Uiso   1.00
C930   C     0.38787   0.96777   0.19468   0.00000  Uiso   1.00
C931   C     0.28733   0.89431   0.19541   0.00000  Uiso   1.00
C932   C     0.31551   0.92739   0.19251   0.00000  Uiso   1.00
C933   C     0.32197   0.94754   0.49207   0.00000  Uiso   1.00
C934   C     0.35918   0.96687   0.40136   0.00000  Uiso   1.00
C935   C     0.32775   0.94051   0.39968   0.00000  Uiso   1.00
C936   C     0.42623   0.97869   0.44675   0.00000  Uiso   1.00
C937   C     0.38326   0.96819   0.44762   0.00000  Uiso   1.00
C938   C     0.28160   0.89820   0.45076   0.00000  Uiso   1.00
C939   C     0.30922   0.92993   0.44789   0.00000  Uiso   1.00
C940   C     0.32109   0.81215   0.32844   0.00000  Uiso   1.00
C941   C     0.32036   0.80757   0.07731   0.00000  Uiso   1.00
C942   C     0.36840   0.94617   0.99514   0.00000  Uiso   1.00
C943   C     0.32045   0.81298   0.57574   0.00000  Uiso   1.00
C944   C     0.36316   0.95525   0.74872   0.00000  Uiso   1.00
C945   C     0.32286   0.94411   0.74746   0.00000  Uiso   1.00
C946   C     0.35882   0.96722   0.65641   0.00000  Uiso   1.00
C947   C     0.32411   0.94398   0.65491   0.00000  Uiso   1.00
C948   C     0.42536   0.97722   0.69952   0.00000  Uiso   1.00
C949   C     0.38315   0.96509   0.70098   0.00000  Uiso   1.00
C950   C     0.28266   0.89396   0.70197   0.00000  Uiso   1.00
C951   C     0.30918   0.92694   0.69979   0.00000  Uiso   1.00
C952   C     0.36766   0.95570   0.90218   0.00000  Uiso   1.00
C953   C     0.33089   0.93390   0.90076   0.00000  Uiso   1.00
C954   C     0.43092   0.97129   0.94728   0.00000  Uiso   1.00
C955   C     0.39031   0.95654   0.94801   0.00000  Uiso   1.00
C956   C     0.28422   0.89022   0.94951   0.00000  Uiso   1.00
C957   C     0.31217   0.92244   0.94672   0.00000  Uiso   1.00
C958   C     0.31988   0.80652   0.82698   0.00000  Uiso   1.00
C959   C     0.32789   0.93772   0.99233   0.00000  Uiso   1.00
C960   C     0.36220   0.80093   0.57458   0.00000  Uiso   1.00
C961   C     0.67600   0.19181   0.44496   0.00000  Uiso   1.00
C962   C     0.67727   0.19217   0.19500   0.00000  Uiso   1.00
C963   C     0.63670   0.04024   0.11543   0.00000  Uiso   1.00
C964   C     0.67508   0.05729   0.11171   0.00000  Uiso   1.00
C965   C     0.63318   0.03667   0.02116   0.00000  Uiso   1.00
C966   C     0.66581   0.06135   0.02154   0.00000  Uiso   1.00
C967   C     0.57223   0.02157   0.07043   0.00000  Uiso   1.00
C968   C     0.61537   0.02967   0.06882   0.00000  Uiso   1.00
C969   C     0.71194   0.10783   0.06816   0.00000  Uiso   1.00
C970   C     0.68462   0.07579   0.06736   0.00000  Uiso   1.00
C971   C     0.63378   0.04143   0.37183   0.00000  Uiso   1.00
C972   C     0.67387   0.05574   0.36764   0.00000  Uiso   1.00
C973   C     0.63559   0.03161   0.27911   0.00000  Uiso   1.00
C974   C     0.66682   0.05649   0.27496   0.00000  Uiso   1.00
C975   C     0.57151   0.01763   0.32509   0.00000  Uiso   1.00
C976   C     0.61459   0.02844   0.32680   0.00000  Uiso   1.00
C977   C     0.71274   0.10370   0.32072   0.00000  Uiso   1.00
C978   C     0.68374   0.07169   0.32067   0.00000  Uiso   1.00
C979   C     0.63121   0.19915   0.44451   0.00000  Uiso   1.00
C980   C     0.60849   0.19987   0.39815   0.00000  Uiso   1.00
C981   C     0.67414   0.18904   0.69709   0.00000  Uiso   1.00
C982   C     0.63106   0.04624   0.61721   0.00000  Uiso   1.00
C983   C     0.67096   0.05876   0.61565   0.00000  Uiso   1.00
C984   C     0.63675   0.03485   0.52538   0.00000  Uiso   1.00
C985   C     0.66725   0.06226   0.52286   0.00000  Uiso   1.00
C986   C     0.56937   0.01943   0.56952   0.00000  Uiso   1.00
C987   C     0.61264   0.03220   0.57110   0.00000  Uiso   1.00
C988   C     0.71192   0.10790   0.57031   0.00000  Uiso   1.00
C989   C     0.68377   0.07652   0.57008   0.00000  Uiso   1.00
C990   C     0.63298   0.04282   0.86695   0.00000  Uiso   1.00
C991   C     0.67334   0.05646   0.86406   0.00000  Uiso   1.00
C992   C     0.63362   0.03392   0.77371   0.00000  Uiso   1.00
C993   C     0.66517   0.05883   0.77042   0.00000  Uiso   1.00
C994   C     0.57087   0.02065   0.81910   0.00000  Uiso   1.00
C995   C     0.61273   0.03163   0.81981   0.00000  Uiso   1.00
C996   C     0.71353   0.10550   0.81690   0.00000  Uiso   1.00
C997   C     0.68624   0.07082   0.81519   0.00000  Uiso   1.00
C998   C     0.67669   0.19035   0.94616   0.00000  Uiso   1.00
C999   C     0.60550   0.19791   0.65527   0.00000  Uiso   1.00
C1000  C     0.60812   0.20697   0.49035   0.00000  Uiso   1.00
C1001  C     0.63897   0.37350   0.11458   0.00000  Uiso   1.00
C1002  C     0.67765   0.38855   0.11128   0.00000  Uiso   1.00
C1003  C     0.57080   0.22244   0.48758   0.00000  Uiso   1.00
C1004  C     0.63626   0.37877   0.37030   0.00000  Uiso   1.00
C1005  C     0.61312   0.20766   0.14979   0.00000  Uiso   1.00
C1006  C     0.57988   0.23341   0.14657   0.00000  Uiso   1.00
C1007  C     0.63624   0.37046   0.27803   0.00000  Uiso   1.00
C1008  C     0.52928   0.27137   0.19489   0.00000  Uiso   1.00
C1009  C     0.55696   0.23878   0.19097   0.00000  Uiso   1.00
C1010  C     0.57126   0.22223   0.23763   0.00000  Uiso   1.00
C1011  C     0.57215   0.35812   0.07172   0.00000  Uiso   1.00
C1012  C     0.61578   0.36625   0.07072   0.00000  Uiso   1.00
C1013  C     0.57554   0.22472   0.39451   0.00000  Uiso   1.00
C1014  C     0.63421   0.37237   0.02244   0.00000  Uiso   1.00
C1015  C     0.53080   0.27202   0.44547   0.00000  Uiso   1.00
C1016  C     0.55667   0.23827   0.44156   0.00000  Uiso   1.00
C1017  C     0.57247   0.35836   0.32250   0.00000  Uiso   1.00
C1018  C     0.61499   0.36955   0.32297   0.00000  Uiso   1.00
C1019  C     0.67548   0.39340   0.36636   0.00000  Uiso   1.00
C1020  C     0.61223   0.21321   0.24248   0.00000  Uiso   1.00
C1021  C     0.66854   0.39552   0.27360   0.00000  Uiso   1.00
C1022  C     0.63403   0.20646   0.19552   0.00000  Uiso   1.00
C1023  C     0.66606   0.39740   0.02058   0.00000  Uiso   1.00
C1024  C     0.63290   0.38540   0.86439   0.00000  Uiso   1.00
C1025  C     0.63357   0.20295   0.94785   0.00000  Uiso   1.00
C1026  C     0.57418   0.22829   0.99442   0.00000  Uiso   1.00
C1027  C     0.61145   0.20397   0.90333   0.00000  Uiso   1.00
C1028  C     0.57236   0.22244   0.65319   0.00000  Uiso   1.00
C1029  C     0.64107   0.36808   0.77645   0.00000  Uiso   1.00
C1030  C     0.63893   0.37769   0.61936   0.00000  Uiso   1.00
C1031  C     0.53232   0.27376   0.69977   0.00000  Uiso   1.00
C1032  C     0.55940   0.24075   0.69888   0.00000  Uiso   1.00
C1033  C     0.57542   0.22835   0.74593   0.00000  Uiso   1.00
C1034  C     0.57284   0.35629   0.57540   0.00000  Uiso   1.00
C1035  C     0.61409   0.37297   0.57489   0.00000  Uiso   1.00
C1036  C     0.67906   0.39048   0.61299   0.00000  Uiso   1.00
C1037  C     0.57636   0.22741   0.90082   0.00000  Uiso   1.00
C1038  C     0.63390   0.37515   0.52688   0.00000  Uiso   1.00
C1039  C     0.53022   0.27384   0.94737   0.00000  Uiso   1.00
C1040  C     0.56058   0.24288   0.94743   0.00000  Uiso   1.00
C1041  C     0.67426   0.39768   0.86514   0.00000  Uiso   1.00
C1042  C     0.57264   0.35855   0.82035   0.00000  Uiso   1.00
C1043  C     0.61691   0.36870   0.82046   0.00000  Uiso   1.00
C1044  C     0.61349   0.21381   0.99486   0.00000  Uiso   1.00
C1045  C     0.61414   0.21243   0.74555   0.00000  Uiso   1.00
C1046  C     0.67463   0.39325   0.77237   0.00000  Uiso   1.00
C1047  C     0.66709   0.39853   0.52155   0.00000  Uiso   1.00
C1048  C     0.63153   0.20023   0.69920   0.00000  Uiso   1.00
C1049  C     0.61398   0.52964   0.15229   0.00000  Uiso   1.00
C1050  C     0.57987   0.55420   0.15025   0.00000  Uiso   1.00
C1051  C     0.67983   0.51793   0.19702   0.00000  Uiso   1.00
C1052  C     0.63919   0.53485   0.19756   0.00000  Uiso   1.00
C1053  C     0.56485   0.57186   0.19520   0.00000  Uiso   1.00
C1054  C     0.62024   0.54694   0.24402   0.00000  Uiso   1.00
C1055  C     0.58038   0.55963   0.24181   0.00000  Uiso   1.00
C1056  C     0.71928   0.43756   0.06666   0.00000  Uiso   1.00
C1057  C     0.62097   0.54155   0.39881   0.00000  Uiso   1.00
C1058  C     0.58817   0.56665   0.39553   0.00000  Uiso   1.00
C1059  C     0.61441   0.53893   0.49049   0.00000  Uiso   1.00
C1060  C     0.67963   0.52258   0.44505   0.00000  Uiso   1.00
C1061  C     0.63809   0.53428   0.44550   0.00000  Uiso   1.00
C1062  C     0.56448   0.57389   0.44013   0.00000  Uiso   1.00
C1063  C     0.71996   0.43657   0.31673   0.00000  Uiso   1.00
C1064  C     0.57386   0.55380   0.48331   0.00000  Uiso   1.00
C1065  C     0.68767   0.40769   0.06670   0.00000  Uiso   1.00
C1066  C     0.68921   0.40635   0.31928   0.00000  Uiso   1.00
C1067  C     0.68957   0.40904   0.81806   0.00000  Uiso   1.00
C1068  C     0.61574   0.54112   0.64460   0.00000  Uiso   1.00
C1069  C     0.58223   0.56519   0.64348   0.00000  Uiso   1.00
C1070  C     0.68865   0.40888   0.56569   0.00000  Uiso   1.00
C1071  C     0.68102   0.52603   0.69249   0.00000  Uiso   1.00
C1072  C     0.63775   0.53983   0.69212   0.00000  Uiso   1.00
C1073  C     0.56203   0.57330   0.69103   0.00000  Uiso   1.00
C1074  C     0.61550   0.54010   0.73832   0.00000  Uiso   1.00
C1075  C     0.57551   0.55423   0.73714   0.00000  Uiso   1.00
C1076  C     0.71576   0.44013   0.56886   0.00000  Uiso   1.00
C1077  C     0.57059   0.55156   0.98712   0.00000  Uiso   1.00
C1078  C     0.61413   0.53572   0.89875   0.00000  Uiso   1.00
C1079  C     0.58213   0.56051   0.89543   0.00000  Uiso   1.00
C1080  C     0.67711   0.52452   0.94597   0.00000  Uiso   1.00
C1081  C     0.63328   0.53348   0.94678   0.00000  Uiso   1.00
C1082  C     0.56049   0.57063   0.94055   0.00000  Uiso   1.00
C1083  C     0.71795   0.44089   0.81828   0.00000  Uiso   1.00
C1084  C     0.61018   0.53761   0.99304   0.00000  Uiso   1.00
C1085  C     0.53272   0.60274   0.43959   0.00000  Uiso   1.00
C1086  C     0.63672   0.70693   0.11832   0.00000  Uiso   1.00
C1087  C     0.67836   0.71798   0.11602   0.00000  Uiso   1.00
C1088  C     0.63768   0.69923   0.02534   0.00000  Uiso   1.00
C1089  C     0.67189   0.72133   0.02111   0.00000  Uiso   1.00
C1090  C     0.57134   0.68744   0.06778   0.00000  Uiso   1.00
C1091  C     0.61481   0.70069   0.07034   0.00000  Uiso   1.00
C1092  C     0.71904   0.76644   0.06730   0.00000  Uiso   1.00
C1093  C     0.69088   0.73413   0.06813   0.00000  Uiso   1.00
C1094  C     0.63031   0.71581   0.36675   0.00000  Uiso   1.00
C1095  C     0.67067   0.72907   0.36527   0.00000  Uiso   1.00
C1096  C     0.63811   0.69784   0.27598   0.00000  Uiso   1.00
C1097  C     0.67009   0.72409   0.27043   0.00000  Uiso   1.00
C1098  C     0.57048   0.69135   0.31979   0.00000  Uiso   1.00
C1099  C     0.61324   0.70074   0.32116   0.00000  Uiso   1.00
C1100  C     0.71244   0.77399   0.31900   0.00000  Uiso   1.00
C1101  C     0.68438   0.74093   0.31647   0.00000  Uiso   1.00
C1102  C     0.53485   0.60237   0.19290   0.00000  Uiso   1.00
C1103  C     0.62988   0.71429   0.61820   0.00000  Uiso   1.00
C1104  C     0.66880   0.72931   0.61625   0.00000  Uiso   1.00
C1105  C     0.63472   0.69999   0.52888   0.00000  Uiso   1.00
C1106  C     0.66634   0.72619   0.52503   0.00000  Uiso   1.00
C1107  C     0.56841   0.68648   0.57220   0.00000  Uiso   1.00
C1108  C     0.61037   0.70112   0.57245   0.00000  Uiso   1.00
C1109  C     0.71227   0.77120   0.56981   0.00000  Uiso   1.00
C1110  C     0.68231   0.74123   0.56909   0.00000  Uiso   1.00
C1111  C     0.63060   0.70951   0.86536   0.00000  Uiso   1.00
C1112  C     0.66977   0.72368   0.86354   0.00000  Uiso   1.00
C1113  C     0.63328   0.70478   0.77131   0.00000  Uiso   1.00
C1114  C     0.66507   0.73104   0.77094   0.00000  Uiso   1.00
C1115  C     0.56917   0.68782   0.81799   0.00000  Uiso   1.00
C1116  C     0.61087   0.70088   0.81822   0.00000  Uiso   1.00
C1117  C     0.71303   0.77225   0.81960   0.00000  Uiso   1.00
C1118  C     0.68195   0.74258   0.81787   0.00000  Uiso   1.00
C1119  C     0.53073   0.60290   0.69173   0.00000  Uiso   1.00
C1120  C     0.53257   0.60235   0.94137   0.00000  Uiso   1.00
C1121  C     0.61195   0.86649   0.15123   0.00000  Uiso   1.00
C1122  C     0.57821   0.89251   0.14851   0.00000  Uiso   1.00
C1123  C     0.67864   0.85645   0.19542   0.00000  Uiso   1.00
C1124  C     0.63567   0.86639   0.19671   0.00000  Uiso   1.00
C1125  C     0.53291   0.93749   0.19581   0.00000  Uiso   1.00
C1126  C     0.56246   0.90692   0.19497   0.00000  Uiso   1.00
C1127  C     0.61593   0.87676   0.24460   0.00000  Uiso   1.00
C1128  C     0.57842   0.89248   0.24257   0.00000  Uiso   1.00
C1129  C     0.61193   0.87158   0.39767   0.00000  Uiso   1.00
C1130  C     0.57762   0.89369   0.39789   0.00000  Uiso   1.00
C1131  C     0.67753   0.85753   0.44478   0.00000  Uiso   1.00
C1132  C     0.63514   0.87024   0.44378   0.00000  Uiso   1.00
C1133  C     0.52913   0.93455   0.44530   0.00000  Uiso   1.00
C1134  C     0.55737   0.90289   0.44508   0.00000  Uiso   1.00
C1135  C     0.57247   0.88824   0.49088   0.00000  Uiso   1.00
C1136  C     0.61389   0.87693   0.49176   0.00000  Uiso   1.00
C1137  C     0.61982   0.87530   0.64206   0.00000  Uiso   1.00
C1138  C     0.58475   0.89883   0.64001   0.00000  Uiso   1.00
C1139  C     0.68140   0.85992   0.69569   0.00000  Uiso   1.00
C1140  C     0.63880   0.86917   0.69270   0.00000  Uiso   1.00
C1141  C     0.53211   0.93498   0.69159   0.00000  Uiso   1.00
C1142  C     0.56307   0.90504   0.68651   0.00000  Uiso   1.00
C1143  C     0.61288   0.87090   0.73508   0.00000  Uiso   1.00
C1144  C     0.57260   0.88111   0.72896   0.00000  Uiso   1.00
C1145  C     0.61031   0.86306   0.90192   0.00000  Uiso   1.00
C1146  C     0.57857   0.88842   0.89799   0.00000  Uiso   1.00
C1147  C     0.68031   0.85521   0.94492   0.00000  Uiso   1.00
C1148  C     0.63603   0.86568   0.94602   0.00000  Uiso   1.00
C1149  C     0.53538   0.93540   0.94490   0.00000  Uiso   1.00
C1150  C     0.56185   0.90214   0.94501   0.00000  Uiso   1.00
C1151  C     0.61745   0.87749   0.99294   0.00000  Uiso   1.00
C1152  C     0.57737   0.88907   0.99060   0.00000  Uiso   1.00
C1153  C     0.88927   0.13543   0.02554   0.00000  Uiso   1.00
C1154  C     0.92327   0.11205   0.02585   0.00000  Uiso   1.00
C1155  C     0.82045   0.14203   0.06723   0.00000  Uiso   1.00
C1156  C     0.86474   0.13244   0.06971   0.00000  Uiso   1.00
C1157  C     0.96446   0.06322   0.06963   0.00000  Uiso   1.00
C1158  C     0.93847   0.09654   0.07019   0.00000  Uiso   1.00
C1159  C     0.88448   0.12174   0.11763   0.00000  Uiso   1.00
C1160  C     0.92363   0.10863   0.11639   0.00000  Uiso   1.00
C1161  C     0.88332   0.13048   0.27452   0.00000  Uiso   1.00
C1162  C     0.91531   0.10522   0.27262   0.00000  Uiso   1.00
C1163  C     0.81904   0.14321   0.32101   0.00000  Uiso   1.00
C1164  C     0.86127   0.13290   0.32155   0.00000  Uiso   1.00
C1165  C     0.96514   0.06565   0.32185   0.00000  Uiso   1.00
C1166  C     0.93767   0.09776   0.31916   0.00000  Uiso   1.00
C1167  C     0.88749   0.13241   0.36655   0.00000  Uiso   1.00
C1168  C     0.92755   0.11889   0.36166   0.00000  Uiso   1.00
C1169  C     0.88937   0.13707   0.53011   0.00000  Uiso   1.00
C1170  C     0.92207   0.11179   0.52643   0.00000  Uiso   1.00
C1171  C     0.82139   0.14703   0.57153   0.00000  Uiso   1.00
C1172  C     0.86466   0.13470   0.57425   0.00000  Uiso   1.00
C1173  C     0.96723   0.06557   0.57166   0.00000  Uiso   1.00
C1174  C     0.93935   0.09639   0.57187   0.00000  Uiso   1.00
C1175  C     0.88287   0.12522   0.62140   0.00000  Uiso   1.00
C1176  C     0.92339   0.10949   0.61897   0.00000  Uiso   1.00
C1177  C     0.88281   0.12713   0.77672   0.00000  Uiso   1.00
C1178  C     0.91587   0.10152   0.77559   0.00000  Uiso   1.00
C1179  C     0.82047   0.14469   0.82130   0.00000  Uiso   1.00
C1180  C     0.86164   0.13121   0.82455   0.00000  Uiso   1.00
C1181  C     0.96297   0.05849   0.82567   0.00000  Uiso   1.00
C1182  C     0.93196   0.09113   0.82297   0.00000  Uiso   1.00
C1183  C     0.88042   0.12079   0.87107   0.00000  Uiso   1.00
C1184  C     0.91995   0.10646   0.86827   0.00000  Uiso   1.00
C1185  C     0.87190   0.28217   0.24250   0.00000  Uiso   1.00
C1186  C     0.83147   0.26873   0.24481   0.00000  Uiso   1.00
C1187  C     0.85983   0.30308   0.15594   0.00000  Uiso   1.00
C1188  C     0.82856   0.27731   0.15128   0.00000  Uiso   1.00
C1189  C     0.92911   0.31119   0.19589   0.00000  Uiso   1.00
C1190  C     0.88593   0.29966   0.19784   0.00000  Uiso   1.00
C1191  C     0.78382   0.22937   0.19526   0.00000  Uiso   1.00
C1192  C     0.81258   0.26048   0.19642   0.00000  Uiso   1.00
C1193  C     0.86870   0.29223   0.39629   0.00000  Uiso   1.00
C1194  C     0.83656   0.26507   0.39551   0.00000  Uiso   1.00
C1195  C     0.93075   0.31133   0.44450   0.00000  Uiso   1.00
C1196  C     0.88937   0.29967   0.44290   0.00000  Uiso   1.00
C1197  C     0.78520   0.22821   0.44483   0.00000  Uiso   1.00
C1198  C     0.81480   0.25923   0.44196   0.00000  Uiso   1.00
C1199  C     0.86772   0.29399   0.48912   0.00000  Uiso   1.00
C1200  C     0.82858   0.27807   0.48677   0.00000  Uiso   1.00
C1201  C     0.96620   0.39565   0.06829   0.00000  Uiso   1.00
C1202  C     0.96813   0.39777   0.31629   0.00000  Uiso   1.00
C1203  C     0.82486   0.27872   0.98770   0.00000  Uiso   1.00
C1204  C     0.86456   0.29362   0.74380   0.00000  Uiso   1.00
C1205  C     0.82505   0.27952   0.73904   0.00000  Uiso   1.00
C1206  C     0.86328   0.30017   0.64974   0.00000  Uiso   1.00
C1207  C     0.83020   0.27581   0.64722   0.00000  Uiso   1.00
C1208  C     0.92913   0.31146   0.69478   0.00000  Uiso   1.00
C1209  C     0.88545   0.30215   0.69581   0.00000  Uiso   1.00
C1210  C     0.78368   0.23124   0.69405   0.00000  Uiso   1.00
C1211  C     0.81031   0.26519   0.69269   0.00000  Uiso   1.00
C1212  C     0.86644   0.29490   0.89909   0.00000  Uiso   1.00
C1213  C     0.82941   0.27455   0.89506   0.00000  Uiso   1.00
C1214  C     0.92966   0.30701   0.94322   0.00000  Uiso   1.00
C1215  C     0.88672   0.29526   0.94487   0.00000  Uiso   1.00
C1216  C     0.78329   0.23032   0.94302   0.00000  Uiso   1.00
C1217  C     0.81054   0.26373   0.94105   0.00000  Uiso   1.00
C1218  C     0.86482   0.29270   0.98892   0.00000  Uiso   1.00
C1219  C     0.96111   0.39056   0.81715   0.00000  Uiso   1.00
C1220  C     0.96787   0.39476   0.56942   0.00000  Uiso   1.00
C1221  C     0.78504   0.56322   0.44038   0.00000  Uiso   1.00
C1222  C     0.92745   0.44544   0.36281   0.00000  Uiso   1.00
C1223  C     0.88914   0.45970   0.36583   0.00000  Uiso   1.00
C1224  C     0.89184   0.47078   0.02766   0.00000  Uiso   1.00
C1225  C     0.92407   0.44594   0.02669   0.00000  Uiso   1.00
C1226  C     0.82443   0.48184   0.06864   0.00000  Uiso   1.00
C1227  C     0.86662   0.47057   0.07229   0.00000  Uiso   1.00
C1228  C     0.93952   0.42916   0.07102   0.00000  Uiso   1.00
C1229  C     0.88653   0.45858   0.11774   0.00000  Uiso   1.00
C1230  C     0.92376   0.44171   0.11816   0.00000  Uiso   1.00
C1231  C     0.78664   0.56221   0.19297   0.00000  Uiso   1.00
C1232  C     0.88605   0.46421   0.27217   0.00000  Uiso   1.00
C1233  C     0.91828   0.43744   0.26741   0.00000  Uiso   1.00
C1234  C     0.82491   0.47726   0.31994   0.00000  Uiso   1.00
C1235  C     0.86735   0.46801   0.32035   0.00000  Uiso   1.00
C1236  C     0.93832   0.42760   0.31537   0.00000  Uiso   1.00
C1237  C     0.81456   0.59448   0.43944   0.00000  Uiso   1.00
C1238  C     0.81423   0.59399   0.19088   0.00000  Uiso   1.00
C1239  C     0.81513   0.59625   0.68760   0.00000  Uiso   1.00
C1240  C     0.88644   0.46108   0.85879   0.00000  Uiso   1.00
C1241  C     0.92673   0.44707   0.85333   0.00000  Uiso   1.00
C1242  C     0.89092   0.46679   0.52828   0.00000  Uiso   1.00
C1243  C     0.92662   0.44571   0.52600   0.00000  Uiso   1.00
C1244  C     0.93272   0.42174   0.81068   0.00000  Uiso   1.00
C1245  C     0.82202   0.47779   0.56991   0.00000  Uiso   1.00
C1246  C     0.86462   0.46295   0.57085   0.00000  Uiso   1.00
C1247  C     0.94142   0.42833   0.57074   0.00000  Uiso   1.00
C1248  C     0.88283   0.45051   0.61670   0.00000  Uiso   1.00
C1249  C     0.78044   0.56743   0.94323   0.00000  Uiso   1.00
C1250  C     0.92371   0.43665   0.61807   0.00000  Uiso   1.00
C1251  C     0.78973   0.56461   0.69155   0.00000  Uiso   1.00
C1252  C     0.87790   0.45705   0.76833   0.00000  Uiso   1.00
C1253  C     0.90721   0.42808   0.76587   0.00000  Uiso   1.00
C1254  C     0.82021   0.47697   0.81673   0.00000  Uiso   1.00
C1255  C     0.86127   0.46336   0.81537   0.00000  Uiso   1.00
C1256  C     0.88388   0.78915   0.36385   0.00000  Uiso   1.00
C1257  C     0.86684   0.63024   0.39716   0.00000  Uiso   1.00
C1258  C     0.86849   0.62392   0.49063   0.00000  Uiso   1.00
C1259  C     0.92819   0.64677   0.19462   0.00000  Uiso   1.00
C1260  C     0.88363   0.63937   0.19388   0.00000  Uiso   1.00
C1261  C     0.92125   0.77461   0.02774   0.00000  Uiso   1.00
C1262  C     0.96665   0.72693   0.07049   0.00000  Uiso   1.00
C1263  C     0.94168   0.76177   0.07105   0.00000  Uiso   1.00
C1264  C     0.92690   0.77324   0.11987   0.00000  Uiso   1.00
C1265  C     0.93264   0.64213   0.44509   0.00000  Uiso   1.00
C1266  C     0.88932   0.63263   0.44308   0.00000  Uiso   1.00
C1267  C     0.91587   0.77172   0.26404   0.00000  Uiso   1.00
C1268  C     0.86557   0.62891   0.14694   0.00000  Uiso   1.00
C1269  C     0.96855   0.72999   0.31411   0.00000  Uiso   1.00
C1270  C     0.93881   0.76189   0.31137   0.00000  Uiso   1.00
C1271  C     0.86033   0.63385   0.23854   0.00000  Uiso   1.00
C1272  C     0.92371   0.77642   0.35780   0.00000  Uiso   1.00
C1273  C     0.82133   0.61816   0.23352   0.00000  Uiso   1.00
C1274  C     0.82837   0.60919   0.48795   0.00000  Uiso   1.00
C1275  C     0.88553   0.78363   0.12081   0.00000  Uiso   1.00
C1276  C     0.83598   0.60113   0.14345   0.00000  Uiso   1.00
C1277  C     0.86617   0.79585   0.07477   0.00000  Uiso   1.00
C1278  C     0.83275   0.60715   0.39380   0.00000  Uiso   1.00
C1279  C     0.88826   0.79734   0.03075   0.00000  Uiso   1.00
C1280  C     0.88329   0.79567   0.26924   0.00000  Uiso   1.00
C1281  C     0.86270   0.79610   0.31903   0.00000  Uiso   1.00
C1282  C     0.88254   0.79137   0.77227   0.00000  Uiso   1.00
C1283  C     0.88321   0.78712   0.61390   0.00000  Uiso   1.00
C1284  C     0.85347   0.64111   0.90110   0.00000  Uiso   1.00
C1285  C     0.82063   0.61198   0.99191   0.00000  Uiso   1.00
C1286  C     0.93030   0.64630   0.69436   0.00000  Uiso   1.00
C1287  C     0.88806   0.63651   0.69328   0.00000  Uiso   1.00
C1288  C     0.91868   0.77329   0.51906   0.00000  Uiso   1.00
C1289  C     0.96691   0.73105   0.56769   0.00000  Uiso   1.00
C1290  C     0.93779   0.76143   0.56532   0.00000  Uiso   1.00
C1291  C     0.88965   0.79397   0.86608   0.00000  Uiso   1.00
C1292  C     0.92366   0.77682   0.61043   0.00000  Uiso   1.00
C1293  C     0.92357   0.64761   0.94391   0.00000  Uiso   1.00
C1294  C     0.87853   0.63757   0.94659   0.00000  Uiso   1.00
C1295  C     0.91534   0.76785   0.76929   0.00000  Uiso   1.00
C1296  C     0.86470   0.63521   0.64886   0.00000  Uiso   1.00
C1297  C     0.86779   0.62373   0.73940   0.00000  Uiso   1.00
C1298  C     0.96780   0.72897   0.81600   0.00000  Uiso   1.00
C1299  C     0.93984   0.76216   0.81519   0.00000  Uiso   1.00
C1300  C     0.92905   0.78016   0.86201   0.00000  Uiso   1.00
C1301  C     0.83597   0.60586   0.64235   0.00000  Uiso   1.00
C1302  C     0.86144   0.62391   0.99207   0.00000  Uiso   1.00
C1303  C     0.81867   0.61895   0.90053   0.00000  Uiso   1.00
C1304  C     0.82747   0.61087   0.73361   0.00000  Uiso   1.00
C1305  C     0.88571   0.79899   0.52188   0.00000  Uiso   1.00
C1306  C     0.86421   0.79889   0.56800   0.00000  Uiso   1.00
C1307  C     0.86495   0.79744   0.82077   0.00000  Uiso   1.00
C1308  C     0.80470   0.60203   0.94447   0.00000  Uiso   1.00
C1309  C     0.82166   0.80693   0.07234   0.00000  Uiso   1.00
C1310  C     0.86395   0.96038   0.24861   0.00000  Uiso   1.00
C1311  C     0.82419   0.94529   0.24009   0.00000  Uiso   1.00
C1312  C     0.86887   0.95951   0.15369   0.00000  Uiso   1.00
C1313  C     0.83806   0.93323   0.14859   0.00000  Uiso   1.00
C1314  C     0.92893   0.97980   0.20185   0.00000  Uiso   1.00
C1315  C     0.88754   0.96474   0.20228   0.00000  Uiso   1.00
C1316  C     0.78565   0.89358   0.19558   0.00000  Uiso   1.00
C1317  C     0.81398   0.92539   0.19478   0.00000  Uiso   1.00
C1318  C     0.81988   0.80670   0.32032   0.00000  Uiso   1.00
C1319  C     0.86045   0.97126   0.40685   0.00000  Uiso   1.00
C1320  C     0.82696   0.94479   0.40064   0.00000  Uiso   1.00
C1321  C     0.92775   0.98159   0.44897   0.00000  Uiso   1.00
C1322  C     0.88501   0.96759   0.45060   0.00000  Uiso   1.00
C1323  C     0.78272   0.89600   0.44545   0.00000  Uiso   1.00
C1324  C     0.81355   0.92684   0.44586   0.00000  Uiso   1.00
C1325  C     0.82720   0.93920   0.49547   0.00000  Uiso   1.00
C1326  C     0.86640   0.95382   0.49752   0.00000  Uiso   1.00
C1327  C     0.86673   0.95481   0.74576   0.00000  Uiso   1.00
C1328  C     0.82857   0.93929   0.74203   0.00000  Uiso   1.00
C1329  C     0.86854   0.96319   0.65533   0.00000  Uiso   1.00
C1330  C     0.83914   0.93668   0.65006   0.00000  Uiso   1.00
C1331  C     0.92807   0.98223   0.70008   0.00000  Uiso   1.00
C1332  C     0.88777   0.96824   0.70100   0.00000  Uiso   1.00
C1333  C     0.78805   0.89208   0.69508   0.00000  Uiso   1.00
C1334  C     0.81793   0.92337   0.69457   0.00000  Uiso   1.00
C1335  C     0.82599   0.93871   0.99498   0.00000  Uiso   1.00
C1336  C     0.86389   0.96295   0.90463   0.00000  Uiso   1.00
C1337  C     0.83083   0.93803   0.90166   0.00000  Uiso   1.00
C1338  C     0.92850   0.97405   0.94955   0.00000  Uiso   1.00
C1339  C     0.88615   0.96249   0.94921   0.00000  Uiso   1.00
C1340  C     0.78260   0.89301   0.94601   0.00000  Uiso   1.00
C1341  C     0.81087   0.92700   0.94760   0.00000  Uiso   1.00
C1342  C     0.82153   0.81067   0.82111   0.00000  Uiso   1.00
C1343  C     0.86612   0.95163   0.99644   0.00000  Uiso   1.00
C1344  C     0.82132   0.80736   0.56730   0.00000  Uiso   1.00
O1345  O     0.22755   0.11906   0.27338   0.00000  Uiso   1.00
O1346  O     0.19921   0.18293   0.14786   0.00000  Uiso   1.00
O1347  O     0.19649   0.18609   0.39934   0.00000  Uiso   1.00
O1348  O     0.05395   0.02047   0.27779   0.00000  Uiso   1.00
O1349  O     0.23136   0.11851   0.11424   0.00000  Uiso   1.00
O1350  O     0.05421   0.02154   0.12368   0.00000  Uiso   1.00
O1351  O     0.22626   0.11720   0.02175   0.00000  Uiso   1.00
O1352  O     0.05422   0.01920   0.02932   0.00000  Uiso   1.00
O1353  O     0.19913   0.18216   0.24060   0.00000  Uiso   1.00
O1354  O     0.22887   0.12017   0.36793   0.00000  Uiso   1.00
O1355  O     0.19834   0.18774   0.49188   0.00000  Uiso   1.00
O1356  O     0.05705   0.01563   0.37071   0.00000  Uiso   1.00
O1357  O     0.22842   0.11894   0.77272   0.00000  Uiso   1.00
O1358  O     0.19901   0.18298   0.90054   0.00000  Uiso   1.00
O1359  O     0.05387   0.01807   0.77982   0.00000  Uiso   1.00
O1360  O     0.22894   0.11966   0.61500   0.00000  Uiso   1.00
O1361  O     0.20087   0.18670   0.99233   0.00000  Uiso   1.00
O1362  O     0.05091   0.02260   0.61950   0.00000  Uiso   1.00
O1363  O     0.22675   0.11994   0.52329   0.00000  Uiso   1.00
O1364  O     0.05272   0.01952   0.52869   0.00000  Uiso   1.00
O1365  O     0.19838   0.18671   0.74305   0.00000  Uiso   1.00
O1366  O     0.22773   0.11717   0.86391   0.00000  Uiso   1.00
O1367  O     0.19846   0.18408   0.65045   0.00000  Uiso   1.00
O1368  O     0.05231   0.02031   0.87262   0.00000  Uiso   1.00
O1369  O     0.05645   0.35063   0.36412   0.00000  Uiso   1.00
O1370  O     0.05752   0.35031   0.27192   0.00000  Uiso   1.00
O1371  O     0.02777   0.28597   0.39867   0.00000  Uiso   1.00
O1372  O     0.02357   0.28692   0.49108   0.00000  Uiso   1.00
O1373  O     0.05604   0.35354   0.02547   0.00000  Uiso   1.00
O1374  O     0.05684   0.34825   0.11785   0.00000  Uiso   1.00
O1375  O     0.02338   0.28479   0.14841   0.00000  Uiso   1.00
O1376  O     0.02614   0.28381   0.24009   0.00000  Uiso   1.00
O1377  O     0.05259   0.35627   0.86402   0.00000  Uiso   1.00
O1378  O     0.05596   0.35004   0.77268   0.00000  Uiso   1.00
O1379  O     0.02754   0.28659   0.98536   0.00000  Uiso   1.00
O1380  O     0.02946   0.28667   0.89585   0.00000  Uiso   1.00
O1381  O     0.05315   0.35103   0.52435   0.00000  Uiso   1.00
O1382  O     0.05758   0.34709   0.61585   0.00000  Uiso   1.00
O1383  O     0.02425   0.28201   0.64406   0.00000  Uiso   1.00
O1384  O     0.02949   0.28347   0.73589   0.00000  Uiso   1.00
O1385  O     0.22419   0.45050   0.36401   0.00000  Uiso   1.00
O1386  O     0.19368   0.51618   0.15039   0.00000  Uiso   1.00
O1387  O     0.22881   0.45135   0.02529   0.00000  Uiso   1.00
O1388  O     0.19637   0.51385   0.49540   0.00000  Uiso   1.00
O1389  O     0.22376   0.45271   0.27136   0.00000  Uiso   1.00
O1390  O     0.22706   0.45069   0.11534   0.00000  Uiso   1.00
O1391  O     0.19880   0.51704   0.40295   0.00000  Uiso   1.00
O1392  O     0.19626   0.51851   0.24123   0.00000  Uiso   1.00
O1393  O     0.22660   0.45312   0.86930   0.00000  Uiso   1.00
O1394  O     0.19637   0.50990   0.74415   0.00000  Uiso   1.00
O1395  O     0.22661   0.44697   0.61443   0.00000  Uiso   1.00
O1396  O     0.23154   0.44649   0.77893   0.00000  Uiso   1.00
O1397  O     0.22759   0.44931   0.52455   0.00000  Uiso   1.00
O1398  O     0.19469   0.51480   0.99080   0.00000  Uiso   1.00
O1399  O     0.19618   0.51699   0.90072   0.00000  Uiso   1.00
O1400  O     0.19662   0.51394   0.65226   0.00000  Uiso   1.00
O1401  O     0.05546   0.67850   0.27264   0.00000  Uiso   1.00
O1402  O     0.03056   0.61978   0.48823   0.00000  Uiso   1.00
O1403  O     0.22253   0.78973   0.27940   0.00000  Uiso   1.00
O1404  O     0.22196   0.78429   0.03217   0.00000  Uiso   1.00
O1405  O     0.05257   0.69051   0.36317   0.00000  Uiso   1.00
O1406  O     0.22348   0.78883   0.37094   0.00000  Uiso   1.00
O1407  O     0.05414   0.67955   0.02399   0.00000  Uiso   1.00
O1408  O     0.03270   0.62355   0.39400   0.00000  Uiso   1.00
O1409  O     0.02245   0.61456   0.14942   0.00000  Uiso   1.00
O1410  O     0.01983   0.61394   0.24104   0.00000  Uiso   1.00
O1411  O     0.22393   0.78408   0.12363   0.00000  Uiso   1.00
O1412  O     0.05216   0.67795   0.11565   0.00000  Uiso   1.00
O1413  O     0.05240   0.68544   0.77478   0.00000  Uiso   1.00
O1414  O     0.01953   0.61203   0.98897   0.00000  Uiso   1.00
O1415  O     0.22286   0.78317   0.77978   0.00000  Uiso   1.00
O1416  O     0.05349   0.67728   0.86555   0.00000  Uiso   1.00
O1417  O     0.22534   0.78609   0.52772   0.00000  Uiso   1.00
O1418  O     0.21972   0.78136   0.87381   0.00000  Uiso   1.00
O1419  O     0.05630   0.68695   0.52514   0.00000  Uiso   1.00
O1420  O     0.01851   0.61637   0.89572   0.00000  Uiso   1.00
O1421  O     0.02787   0.62015   0.64735   0.00000  Uiso   1.00
O1422  O     0.02638   0.61942   0.73968   0.00000  Uiso   1.00
O1423  O     0.22480   0.78510   0.61806   0.00000  Uiso   1.00
O1424  O     0.05474   0.68921   0.61616   0.00000  Uiso   1.00
O1425  O     0.19405   0.85207   0.49762   0.00000  Uiso   1.00
O1426  O     0.02458   0.95667   0.15087   0.00000  Uiso   1.00
O1427  O     0.19554   0.84993   0.15519   0.00000  Uiso   1.00
O1428  O     0.02668   0.95817   0.24238   0.00000  Uiso   1.00
O1429  O     0.19441   0.85501   0.24695   0.00000  Uiso   1.00
O1430  O     0.02369   0.95242   0.40516   0.00000  Uiso   1.00
O1431  O     0.19393   0.85386   0.40453   0.00000  Uiso   1.00
O1432  O     0.02213   0.95236   0.49616   0.00000  Uiso   1.00
O1433  O     0.19428   0.84749   0.00054   0.00000  Uiso   1.00
O1434  O     0.02399   0.95254   0.99592   0.00000  Uiso   1.00
O1435  O     0.02587   0.95660   0.65173   0.00000  Uiso   1.00
O1436  O     0.19368   0.84889   0.65258   0.00000  Uiso   1.00
O1437  O     0.02557   0.95320   0.74143   0.00000  Uiso   1.00
O1438  O     0.19427   0.84978   0.74606   0.00000  Uiso   1.00
O1439  O     0.02760   0.95326   0.90496   0.00000  Uiso   1.00
O1440  O     0.19149   0.84812   0.90945   0.00000  Uiso   1.00
O1441  O     0.47429   0.04706   0.36860   0.00000  Uiso   1.00
O1442  O     0.30655   0.14768   0.36746   0.00000  Uiso   1.00
O1443  O     0.47776   0.04887   0.27613   0.00000  Uiso   1.00
O1444  O     0.30545   0.14977   0.27403   0.00000  Uiso   1.00
O1445  O     0.47359   0.04198   0.02128   0.00000  Uiso   1.00
O1446  O     0.30568   0.14251   0.02236   0.00000  Uiso   1.00
O1447  O     0.47710   0.04857   0.11389   0.00000  Uiso   1.00
O1448  O     0.30785   0.15029   0.11420   0.00000  Uiso   1.00
O1449  O     0.47187   0.04253   0.86345   0.00000  Uiso   1.00
O1450  O     0.30445   0.15112   0.86485   0.00000  Uiso   1.00
O1451  O     0.47681   0.04477   0.77386   0.00000  Uiso   1.00
O1452  O     0.30612   0.15015   0.77178   0.00000  Uiso   1.00
O1453  O     0.47437   0.04786   0.52474   0.00000  Uiso   1.00
O1454  O     0.30542   0.15133   0.52279   0.00000  Uiso   1.00
O1455  O     0.47261   0.04647   0.61716   0.00000  Uiso   1.00
O1456  O     0.30502   0.14768   0.61313   0.00000  Uiso   1.00
O1457  O     0.47869   0.38538   0.36606   0.00000  Uiso   1.00
O1458  O     0.47248   0.38129   0.27512   0.00000  Uiso   1.00
O1459  O     0.44639   0.32089   0.40197   0.00000  Uiso   1.00
O1460  O     0.27717   0.21590   0.48839   0.00000  Uiso   1.00
O1461  O     0.27430   0.21665   0.24134   0.00000  Uiso   1.00
O1462  O     0.45005   0.31858   0.24118   0.00000  Uiso   1.00
O1463  O     0.27693   0.21488   0.39506   0.00000  Uiso   1.00
O1464  O     0.27787   0.21462   0.14921   0.00000  Uiso   1.00
O1465  O     0.44418   0.32052   0.14744   0.00000  Uiso   1.00
O1466  O     0.47567   0.38818   0.02482   0.00000  Uiso   1.00
O1467  O     0.47877   0.38746   0.11596   0.00000  Uiso   1.00
O1468  O     0.44687   0.31868   0.49151   0.00000  Uiso   1.00
O1469  O     0.47490   0.38506   0.86583   0.00000  Uiso   1.00
O1470  O     0.47656   0.38477   0.77530   0.00000  Uiso   1.00
O1471  O     0.28086   0.20997   0.98957   0.00000  Uiso   1.00
O1472  O     0.44577   0.31746   0.90182   0.00000  Uiso   1.00
O1473  O     0.44531   0.32333   0.99190   0.00000  Uiso   1.00
O1474  O     0.27582   0.21383   0.89814   0.00000  Uiso   1.00
O1475  O     0.27665   0.21559   0.74104   0.00000  Uiso   1.00
O1476  O     0.44611   0.31915   0.74460   0.00000  Uiso   1.00
O1477  O     0.27762   0.21364   0.65037   0.00000  Uiso   1.00
O1478  O     0.44713   0.31712   0.65277   0.00000  Uiso   1.00
O1479  O     0.47471   0.38053   0.52604   0.00000  Uiso   1.00
O1480  O     0.47577   0.38305   0.61850   0.00000  Uiso   1.00
O1481  O     0.30532   0.48828   0.02498   0.00000  Uiso   1.00
O1482  O     0.30247   0.47595   0.36539   0.00000  Uiso   1.00
O1483  O     0.27709   0.54284   0.40105   0.00000  Uiso   1.00
O1484  O     0.30480   0.48341   0.27523   0.00000  Uiso   1.00
O1485  O     0.30276   0.48795   0.11705   0.00000  Uiso   1.00
O1486  O     0.27286   0.54561   0.49394   0.00000  Uiso   1.00
O1487  O     0.27374   0.54813   0.24092   0.00000  Uiso   1.00
O1488  O     0.27366   0.54929   0.14911   0.00000  Uiso   1.00
O1489  O     0.30305   0.47797   0.52673   0.00000  Uiso   1.00
O1490  O     0.30496   0.48316   0.86900   0.00000  Uiso   1.00
O1491  O     0.27067   0.54527   0.74193   0.00000  Uiso   1.00
O1492  O     0.27481   0.54761   0.89753   0.00000  Uiso   1.00
O1493  O     0.30596   0.48302   0.77643   0.00000  Uiso   1.00
O1494  O     0.27013   0.55114   0.98893   0.00000  Uiso   1.00
O1495  O     0.30390   0.48055   0.61793   0.00000  Uiso   1.00
O1496  O     0.27421   0.54313   0.64970   0.00000  Uiso   1.00
O1497  O     0.46926   0.71154   0.36260   0.00000  Uiso   1.00
O1498  O     0.47681   0.71560   0.27115   0.00000  Uiso   1.00
O1499  O     0.44422   0.64661   0.48787   0.00000  Uiso   1.00
O1500  O     0.44420   0.64478   0.39678   0.00000  Uiso   1.00
O1501  O     0.44747   0.64913   0.23703   0.00000  Uiso   1.00
O1502  O     0.44745   0.64263   0.14612   0.00000  Uiso   1.00
O1503  O     0.47574   0.71329   0.01868   0.00000  Uiso   1.00
O1504  O     0.47568   0.71180   0.11063   0.00000  Uiso   1.00
O1505  O     0.44321   0.64774   0.89808   0.00000  Uiso   1.00
O1506  O     0.44171   0.64864   0.98944   0.00000  Uiso   1.00
O1507  O     0.47320   0.71234   0.86378   0.00000  Uiso   1.00
O1508  O     0.47497   0.71109   0.77032   0.00000  Uiso   1.00
O1509  O     0.44365   0.64631   0.74059   0.00000  Uiso   1.00
O1510  O     0.44424   0.64398   0.64958   0.00000  Uiso   1.00
O1511  O     0.47239   0.71185   0.52684   0.00000  Uiso   1.00
O1512  O     0.46981   0.71104   0.61666   0.00000  Uiso   1.00
O1513  O     0.44376   0.98315   0.40140   0.00000  Uiso   1.00
O1514  O     0.27262   0.88194   0.40626   0.00000  Uiso   1.00
O1515  O     0.30318   0.81627   0.37530   0.00000  Uiso   1.00
O1516  O     0.44375   0.98279   0.49234   0.00000  Uiso   1.00
O1517  O     0.30134   0.81206   0.02962   0.00000  Uiso   1.00
O1518  O     0.27707   0.88231   0.24466   0.00000  Uiso   1.00
O1519  O     0.30127   0.81426   0.28393   0.00000  Uiso   1.00
O1520  O     0.44738   0.98390   0.24182   0.00000  Uiso   1.00
O1521  O     0.27487   0.87822   0.15166   0.00000  Uiso   1.00
O1522  O     0.44898   0.98381   0.14995   0.00000  Uiso   1.00
O1523  O     0.30357   0.81247   0.12199   0.00000  Uiso   1.00
O1524  O     0.27344   0.88319   0.49718   0.00000  Uiso   1.00
O1525  O     0.44783   0.97681   0.90065   0.00000  Uiso   1.00
O1526  O     0.27229   0.87510   0.90608   0.00000  Uiso   1.00
O1527  O     0.29936   0.80895   0.87221   0.00000  Uiso   1.00
O1528  O     0.27351   0.87689   0.99594   0.00000  Uiso   1.00
O1529  O     0.27281   0.87843   0.74865   0.00000  Uiso   1.00
O1530  O     0.30096   0.81216   0.78189   0.00000  Uiso   1.00
O1531  O     0.44511   0.97980   0.74355   0.00000  Uiso   1.00
O1532  O     0.45059   0.97648   0.99068   0.00000  Uiso   1.00
O1533  O     0.27106   0.88041   0.65705   0.00000  Uiso   1.00
O1534  O     0.44359   0.98042   0.65252   0.00000  Uiso   1.00
O1535  O     0.30198   0.81514   0.62185   0.00000  Uiso   1.00
O1536  O     0.30424   0.81797   0.53155   0.00000  Uiso   1.00
O1537  O     0.72563   0.11665   0.27473   0.00000  Uiso   1.00
O1538  O     0.69535   0.18577   0.39983   0.00000  Uiso   1.00
O1539  O     0.69451   0.18734   0.49059   0.00000  Uiso   1.00
O1540  O     0.55460   0.01359   0.27899   0.00000  Uiso   1.00
O1541  O     0.72258   0.12198   0.11427   0.00000  Uiso   1.00
O1542  O     0.55431   0.01845   0.11674   0.00000  Uiso   1.00
O1543  O     0.72272   0.12208   0.02357   0.00000  Uiso   1.00
O1544  O     0.55358   0.01815   0.02505   0.00000  Uiso   1.00
O1545  O     0.69346   0.18207   0.24019   0.00000  Uiso   1.00
O1546  O     0.72076   0.11871   0.36689   0.00000  Uiso   1.00
O1547  O     0.69731   0.19159   0.15042   0.00000  Uiso   1.00
O1548  O     0.55167   0.01571   0.36963   0.00000  Uiso   1.00
O1549  O     0.72182   0.12157   0.77016   0.00000  Uiso   1.00
O1550  O     0.69414   0.18433   0.65182   0.00000  Uiso   1.00
O1551  O     0.55450   0.01176   0.77312   0.00000  Uiso   1.00
O1552  O     0.72422   0.12021   0.61758   0.00000  Uiso   1.00
O1553  O     0.55057   0.01649   0.61639   0.00000  Uiso   1.00
O1554  O     0.72081   0.12325   0.52493   0.00000  Uiso   1.00
O1555  O     0.55184   0.01330   0.52378   0.00000  Uiso   1.00
O1556  O     0.69438   0.18634   0.74219   0.00000  Uiso   1.00
O1557  O     0.72351   0.11951   0.86394   0.00000  Uiso   1.00
O1558  O     0.55168   0.01932   0.86414   0.00000  Uiso   1.00
O1559  O     0.69440   0.18820   0.89953   0.00000  Uiso   1.00
O1560  O     0.69569   0.18644   0.99166   0.00000  Uiso   1.00
O1561  O     0.55486   0.35252   0.36807   0.00000  Uiso   1.00
O1562  O     0.55333   0.35527   0.27780   0.00000  Uiso   1.00
O1563  O     0.55422   0.35333   0.11866   0.00000  Uiso   1.00
O1564  O     0.52096   0.28765   0.39823   0.00000  Uiso   1.00
O1565  O     0.55372   0.35601   0.02503   0.00000  Uiso   1.00
O1566  O     0.52516   0.28838   0.24330   0.00000  Uiso   1.00
O1567  O     0.52484   0.28656   0.49310   0.00000  Uiso   1.00
O1568  O     0.51822   0.28587   0.14866   0.00000  Uiso   1.00
O1569  O     0.55285   0.35929   0.86641   0.00000  Uiso   1.00
O1570  O     0.55448   0.35168   0.77557   0.00000  Uiso   1.00
O1571  O     0.52604   0.28979   0.90032   0.00000  Uiso   1.00
O1572  O     0.52280   0.28990   0.99244   0.00000  Uiso   1.00
O1573  O     0.55475   0.35263   0.52832   0.00000  Uiso   1.00
O1574  O     0.55620   0.34902   0.61979   0.00000  Uiso   1.00
O1575  O     0.52383   0.28842   0.65373   0.00000  Uiso   1.00
O1576  O     0.52099   0.28795   0.74521   0.00000  Uiso   1.00
O1577  O     0.72906   0.45084   0.36364   0.00000  Uiso   1.00
O1578  O     0.69668   0.51324   0.14990   0.00000  Uiso   1.00
O1579  O     0.69893   0.52018   0.48924   0.00000  Uiso   1.00
O1580  O     0.72931   0.45181   0.26937   0.00000  Uiso   1.00
O1581  O     0.72754   0.45331   0.02148   0.00000  Uiso   1.00
O1582  O     0.73174   0.45106   0.11290   0.00000  Uiso   1.00
O1583  O     0.69754   0.51752   0.39703   0.00000  Uiso   1.00
O1584  O     0.70085   0.51906   0.24013   0.00000  Uiso   1.00
O1585  O     0.69778   0.52170   0.73867   0.00000  Uiso   1.00
O1586  O     0.72681   0.45643   0.86461   0.00000  Uiso   1.00
O1587  O     0.72756   0.45460   0.52331   0.00000  Uiso   1.00
O1588  O     0.69829   0.52188   0.64778   0.00000  Uiso   1.00
O1589  O     0.72752   0.45502   0.77101   0.00000  Uiso   1.00
O1590  O     0.72458   0.45542   0.61691   0.00000  Uiso   1.00
O1591  O     0.69666   0.52104   0.89905   0.00000  Uiso   1.00
O1592  O     0.69616   0.51909   0.99267   0.00000  Uiso   1.00
O1593  O     0.55372   0.68540   0.27355   0.00000  Uiso   1.00
O1594  O     0.72344   0.78809   0.27253   0.00000  Uiso   1.00
O1595  O     0.55149   0.68529   0.36459   0.00000  Uiso   1.00
O1596  O     0.52366   0.61725   0.48799   0.00000  Uiso   1.00
O1597  O     0.72781   0.78198   0.02161   0.00000  Uiso   1.00
O1598  O     0.72058   0.78862   0.36598   0.00000  Uiso   1.00
O1599  O     0.55370   0.68126   0.02105   0.00000  Uiso   1.00
O1600  O     0.52435   0.61949   0.39326   0.00000  Uiso   1.00
O1601  O     0.52692   0.61777   0.14618   0.00000  Uiso   1.00
O1602  O     0.52407   0.61650   0.23824   0.00000  Uiso   1.00
O1603  O     0.72432   0.78243   0.11333   0.00000  Uiso   1.00
O1604  O     0.55394   0.68366   0.11407   0.00000  Uiso   1.00
O1605  O     0.55179   0.68173   0.77113   0.00000  Uiso   1.00
O1606  O     0.72360   0.78501   0.52390   0.00000  Uiso   1.00
O1607  O     0.72601   0.78619   0.77469   0.00000  Uiso   1.00
O1608  O     0.55200   0.68314   0.86320   0.00000  Uiso   1.00
O1609  O     0.51929   0.61516   0.98694   0.00000  Uiso   1.00
O1610  O     0.72548   0.78511   0.86567   0.00000  Uiso   1.00
O1611  O     0.52411   0.61790   0.89489   0.00000  Uiso   1.00
O1612  O     0.55077   0.68549   0.52578   0.00000  Uiso   1.00
O1613  O     0.51895   0.61688   0.64582   0.00000  Uiso   1.00
O1614  O     0.52011   0.61517   0.73877   0.00000  Uiso   1.00
O1615  O     0.72085   0.78681   0.61511   0.00000  Uiso   1.00
O1616  O     0.55046   0.68214   0.61698   0.00000  Uiso   1.00
O1617  O     0.51718   0.94887   0.49176   0.00000  Uiso   1.00
O1618  O     0.52448   0.95246   0.15066   0.00000  Uiso   1.00
O1619  O     0.69453   0.84770   0.14933   0.00000  Uiso   1.00
O1620  O     0.52555   0.95334   0.24137   0.00000  Uiso   1.00
O1621  O     0.69805   0.85500   0.24012   0.00000  Uiso   1.00
O1622  O     0.52114   0.95052   0.40048   0.00000  Uiso   1.00
O1623  O     0.69775   0.85530   0.40002   0.00000  Uiso   1.00
O1624  O     0.69527   0.85137   0.49246   0.00000  Uiso   1.00
O1625  O     0.52658   0.95029   0.99200   0.00000  Uiso   1.00
O1626  O     0.69879   0.84922   0.99082   0.00000  Uiso   1.00
O1627  O     0.52049   0.95034   0.64896   0.00000  Uiso   1.00
O1628  O     0.69994   0.85449   0.65064   0.00000  Uiso   1.00
O1629  O     0.52540   0.94955   0.73761   0.00000  Uiso   1.00
O1630  O     0.69610   0.85047   0.74203   0.00000  Uiso   1.00
O1631  O     0.52548   0.95167   0.89959   0.00000  Uiso   1.00
O1632  O     0.69705   0.84897   0.89991   0.00000  Uiso   1.00
O1633  O     0.97732   0.05040   0.36736   0.00000  Uiso   1.00
O1634  O     0.80044   0.14573   0.36762   0.00000  Uiso   1.00
O1635  O     0.80209   0.14924   0.27581   0.00000  Uiso   1.00
O1636  O     0.97298   0.04913   0.02453   0.00000  Uiso   1.00
O1637  O     0.80433   0.15011   0.02152   0.00000  Uiso   1.00
O1638  O     0.97499   0.05062   0.11745   0.00000  Uiso   1.00
O1639  O     0.80153   0.14676   0.11282   0.00000  Uiso   1.00
O1640  O     0.97192   0.04835   0.27554   0.00000  Uiso   1.00
O1641  O     0.97134   0.04376   0.87007   0.00000  Uiso   1.00
O1642  O     0.80133   0.14979   0.86713   0.00000  Uiso   1.00
O1643  O     0.97455   0.04649   0.78104   0.00000  Uiso   1.00
O1644  O     0.80304   0.15024   0.77483   0.00000  Uiso   1.00
O1645  O     0.97730   0.05023   0.52804   0.00000  Uiso   1.00
O1646  O     0.80296   0.14917   0.52623   0.00000  Uiso   1.00
O1647  O     0.97410   0.04933   0.61740   0.00000  Uiso   1.00
O1648  O     0.80215   0.15055   0.61750   0.00000  Uiso   1.00
O1649  O     0.97526   0.38139   0.36153   0.00000  Uiso   1.00
O1650  O     0.97845   0.38192   0.27133   0.00000  Uiso   1.00
O1651  O     0.77401   0.21353   0.39984   0.00000  Uiso   1.00
O1652  O     0.94770   0.31607   0.48953   0.00000  Uiso   1.00
O1653  O     0.77263   0.21544   0.49150   0.00000  Uiso   1.00
O1654  O     0.95004   0.31602   0.39812   0.00000  Uiso   1.00
O1655  O     0.77177   0.21542   0.23985   0.00000  Uiso   1.00
O1656  O     0.94719   0.31397   0.24179   0.00000  Uiso   1.00
O1657  O     0.77809   0.21343   0.14774   0.00000  Uiso   1.00
O1658  O     0.94639   0.31514   0.15010   0.00000  Uiso   1.00
O1659  O     0.97640   0.38198   0.02197   0.00000  Uiso   1.00
O1660  O     0.97600   0.38164   0.11386   0.00000  Uiso   1.00
O1661  O     0.97035   0.37757   0.86444   0.00000  Uiso   1.00
O1662  O     0.97451   0.37603   0.77249   0.00000  Uiso   1.00
O1663  O     0.94994   0.30984   0.89773   0.00000  Uiso   1.00
O1664  O     0.77292   0.21685   0.89715   0.00000  Uiso   1.00
O1665  O     0.77693   0.21591   0.74000   0.00000  Uiso   1.00
O1666  O     0.94842   0.31036   0.73988   0.00000  Uiso   1.00
O1667  O     0.77476   0.21784   0.99036   0.00000  Uiso   1.00
O1668  O     0.77266   0.21697   0.64930   0.00000  Uiso   1.00
O1669  O     0.94568   0.31526   0.64913   0.00000  Uiso   1.00
O1670  O     0.97799   0.37928   0.52223   0.00000  Uiso   1.00
O1671  O     0.97820   0.37946   0.61526   0.00000  Uiso   1.00
O1672  O     0.94762   0.31298   0.98934   0.00000  Uiso   1.00
O1673  O     0.80809   0.48701   0.36493   0.00000  Uiso   1.00
O1674  O     0.80605   0.48695   0.02166   0.00000  Uiso   1.00
O1675  O     0.77389   0.54897   0.39427   0.00000  Uiso   1.00
O1676  O     0.80617   0.47889   0.27398   0.00000  Uiso   1.00
O1677  O     0.77611   0.54877   0.48647   0.00000  Uiso   1.00
O1678  O     0.80669   0.48685   0.11449   0.00000  Uiso   1.00
O1679  O     0.78049   0.54696   0.24054   0.00000  Uiso   1.00
O1680  O     0.77227   0.54944   0.14744   0.00000  Uiso   1.00
O1681  O     0.80574   0.48515   0.52496   0.00000  Uiso   1.00
O1682  O     0.80463   0.48424   0.86155   0.00000  Uiso   1.00
O1683  O     0.77963   0.55072   0.73837   0.00000  Uiso   1.00
O1684  O     0.77491   0.55080   0.89656   0.00000  Uiso   1.00
O1685  O     0.80356   0.48441   0.77086   0.00000  Uiso   1.00
O1686  O     0.77292   0.55087   0.98953   0.00000  Uiso   1.00
O1687  O     0.80266   0.47933   0.61491   0.00000  Uiso   1.00
O1688  O     0.77850   0.54929   0.64623   0.00000  Uiso   1.00
O1689  O     0.97398   0.71483   0.36054   0.00000  Uiso   1.00
O1690  O     0.97909   0.71307   0.27058   0.00000  Uiso   1.00
O1691  O     0.97495   0.71185   0.11454   0.00000  Uiso   1.00
O1692  O     0.95006   0.64734   0.48996   0.00000  Uiso   1.00
O1693  O     0.95020   0.64803   0.39832   0.00000  Uiso   1.00
O1694  O     0.97864   0.71419   0.02397   0.00000  Uiso   1.00
O1695  O     0.94604   0.65097   0.24062   0.00000  Uiso   1.00
O1696  O     0.94449   0.64938   0.14727   0.00000  Uiso   1.00
O1697  O     0.98254   0.71573   0.86253   0.00000  Uiso   1.00
O1698  O     0.94096   0.65439   0.89721   0.00000  Uiso   1.00
O1699  O     0.94125   0.64822   0.98938   0.00000  Uiso   1.00
O1700  O     0.97334   0.71246   0.77004   0.00000  Uiso   1.00
O1701  O     0.94775   0.64788   0.74011   0.00000  Uiso   1.00
O1702  O     0.94832   0.64839   0.64860   0.00000  Uiso   1.00
O1703  O     0.97576   0.71438   0.52098   0.00000  Uiso   1.00
O1704  O     0.97608   0.71459   0.61434   0.00000  Uiso   1.00
O1705  O     0.94686   0.98525   0.40340   0.00000  Uiso   1.00
O1706  O     0.77716   0.88027   0.40086   0.00000  Uiso   1.00
O1707  O     0.80355   0.81381   0.36742   0.00000  Uiso   1.00
O1708  O     0.80519   0.81231   0.02584   0.00000  Uiso   1.00
O1709  O     0.94580   0.98541   0.49523   0.00000  Uiso   1.00
O1710  O     0.78084   0.87724   0.24219   0.00000  Uiso   1.00
O1711  O     0.94734   0.98407   0.24672   0.00000  Uiso   1.00
O1712  O     0.77285   0.87895   0.14997   0.00000  Uiso   1.00
O1713  O     0.94538   0.98568   0.15502   0.00000  Uiso   1.00
O1714  O     0.80365   0.81374   0.11764   0.00000  Uiso   1.00
O1715  O     0.77133   0.88144   0.49160   0.00000  Uiso   1.00
O1716  O     0.80180   0.81062   0.27562   0.00000  Uiso   1.00
O1717  O     0.94772   0.97914   0.90380   0.00000  Uiso   1.00
O1718  O     0.77620   0.87723   0.90082   0.00000  Uiso   1.00
O1719  O     0.80549   0.81509   0.86719   0.00000  Uiso   1.00
O1720  O     0.80330   0.81428   0.52246   0.00000  Uiso   1.00
O1721  O     0.77714   0.88013   0.74304   0.00000  Uiso   1.00
O1722  O     0.80335   0.81347   0.77477   0.00000  Uiso   1.00
O1723  O     0.94735   0.98519   0.74600   0.00000  Uiso   1.00
O1724  O     0.77975   0.87581   0.64944   0.00000  Uiso   1.00
O1725  O     0.94578   0.98538   0.65364   0.00000  Uiso   1.00
O1726  O     0.80302   0.80920   0.61377   0.00000  Uiso   1.00
O1727  O     0.77467   0.87783   0.99236   0.00000  Uiso   1.00
O1728  O     0.94603   0.98091   0.99479   0.00000  Uiso   1.00
O1729  O     0.24699   0.18225   0.06823   0.00000  Uiso   1.00
O1730  O     0.00510   0.02159   0.19861   0.00000  Uiso   1.00
O1731  O     0.00704   0.02070   0.44908   0.00000  Uiso   1.00
O1732  O     0.24467   0.18364   0.32071   0.00000  Uiso   1.00
O1733  O     0.24272   0.18636   0.82154   0.00000  Uiso   1.00
O1734  O     0.00708   0.01690   0.94815   0.00000  Uiso   1.00
O1735  O     0.24315   0.18532   0.57019   0.00000  Uiso   1.00
O1736  O     0.00884   0.02290   0.69957   0.00000  Uiso   1.00
O1737  O     0.01109   0.34968   0.19366   0.00000  Uiso   1.00
O1738  O     0.00860   0.35310   0.44371   0.00000  Uiso   1.00
O1739  O     0.00820   0.35451   0.94377   0.00000  Uiso   1.00
O1740  O     0.01049   0.34969   0.69468   0.00000  Uiso   1.00
O1741  O     0.24315   0.51820   0.06823   0.00000  Uiso   1.00
O1742  O     0.24410   0.51880   0.31948   0.00000  Uiso   1.00
O1743  O     0.24332   0.51396   0.57261   0.00000  Uiso   1.00
O1744  O     0.24387   0.51691   0.82138   0.00000  Uiso   1.00
O1745  O     0.00940   0.68225   0.19446   0.00000  Uiso   1.00
O1746  O     0.01155   0.68609   0.44407   0.00000  Uiso   1.00
O1747  O     0.00910   0.68738   0.69406   0.00000  Uiso   1.00
O1748  O     0.00798   0.68207   0.94410   0.00000  Uiso   1.00
O1749  O     0.24152   0.84969   0.07506   0.00000  Uiso   1.00
O1750  O     0.24105   0.85536   0.32698   0.00000  Uiso   1.00
O1751  O     0.23667   0.84774   0.82736   0.00000  Uiso   1.00
O1752  O     0.24156   0.85234   0.57634   0.00000  Uiso   1.00
O1753  O     0.25895   0.15099   0.44659   0.00000  Uiso   1.00
O1754  O     0.26189   0.15063   0.19374   0.00000  Uiso   1.00
O1755  O     0.25887   0.14618   0.94313   0.00000  Uiso   1.00
O1756  O     0.26053   0.14917   0.69338   0.00000  Uiso   1.00
O1757  O     0.49116   0.31747   0.32244   0.00000  Uiso   1.00
O1758  O     0.49070   0.32128   0.06878   0.00000  Uiso   1.00
O1759  O     0.49077   0.31612   0.57337   0.00000  Uiso   1.00
O1760  O     0.49161   0.31796   0.82120   0.00000  Uiso   1.00
O1761  O     0.25773   0.47909   0.44603   0.00000  Uiso   1.00
O1762  O     0.25574   0.48217   0.19440   0.00000  Uiso   1.00
O1763  O     0.25681   0.47639   0.69797   0.00000  Uiso   1.00
O1764  O     0.26179   0.48442   0.94621   0.00000  Uiso   1.00
O1765  O     0.48923   0.64726   0.31711   0.00000  Uiso   1.00
O1766  O     0.49178   0.64725   0.06632   0.00000  Uiso   1.00
O1767  O     0.49001   0.64794   0.81714   0.00000  Uiso   1.00
O1768  O     0.48898   0.64562   0.56899   0.00000  Uiso   1.00
O1769  O     0.48911   0.98006   0.32261   0.00000  Uiso   1.00
O1770  O     0.25708   0.81537   0.20366   0.00000  Uiso   1.00
O1771  O     0.49097   0.97960   0.07183   0.00000  Uiso   1.00
O1772  O     0.25533   0.81630   0.44920   0.00000  Uiso   1.00
O1773  O     0.25585   0.81365   0.70161   0.00000  Uiso   1.00
O1774  O     0.49359   0.97688   0.82002   0.00000  Uiso   1.00
O1775  O     0.48752   0.98003   0.57204   0.00000  Uiso   1.00
O1776  O     0.25578   0.80977   0.95112   0.00000  Uiso   1.00
O1777  O     0.50466   0.01794   0.44652   0.00000  Uiso   1.00
O1778  O     0.74311   0.18654   0.07230   0.00000  Uiso   1.00
O1779  O     0.51192   0.01852   0.19623   0.00000  Uiso   1.00
O1780  O     0.74007   0.18472   0.31949   0.00000  Uiso   1.00
O1781  O     0.50967   0.01682   0.94517   0.00000  Uiso   1.00
O1782  O     0.50546   0.01697   0.69518   0.00000  Uiso   1.00
O1783  O     0.73974   0.18655   0.81887   0.00000  Uiso   1.00
O1784  O     0.73961   0.18555   0.56918   0.00000  Uiso   1.00
O1785  O     0.50888   0.35620   0.19627   0.00000  Uiso   1.00
O1786  O     0.51247   0.35415   0.44689   0.00000  Uiso   1.00
O1787  O     0.50665   0.35852   0.94733   0.00000  Uiso   1.00
O1788  O     0.50753   0.35294   0.69679   0.00000  Uiso   1.00
O1789  O     0.74279   0.51901   0.06836   0.00000  Uiso   1.00
O1790  O     0.74401   0.51836   0.31754   0.00000  Uiso   1.00
O1791  O     0.74328   0.52110   0.56959   0.00000  Uiso   1.00
O1792  O     0.74129   0.52162   0.81645   0.00000  Uiso   1.00
O1793  O     0.50331   0.68481   0.44429   0.00000  Uiso   1.00
O1794  O     0.50988   0.68365   0.19276   0.00000  Uiso   1.00
O1795  O     0.50496   0.68249   0.69313   0.00000  Uiso   1.00
O1796  O     0.50729   0.68433   0.94076   0.00000  Uiso   1.00
O1797  O     0.74188   0.84668   0.07153   0.00000  Uiso   1.00
O1798  O     0.74534   0.85090   0.32252   0.00000  Uiso   1.00
O1799  O     0.74497   0.85071   0.57079   0.00000  Uiso   1.00
O1800  O     0.74335   0.85207   0.82249   0.00000  Uiso   1.00
O1801  O     0.75697   0.14815   0.44731   0.00000  Uiso   1.00
O1802  O     0.75762   0.14769   0.19425   0.00000  Uiso   1.00
O1803  O     0.75545   0.15159   0.94426   0.00000  Uiso   1.00
O1804  O     0.75802   0.14973   0.69648   0.00000  Uiso   1.00
O1805  O     0.99386   0.31422   0.07021   0.00000  Uiso   1.00
O1806  O     0.99224   0.31395   0.31934   0.00000  Uiso   1.00
O1807  O     0.99717   0.31135   0.82058   0.00000  Uiso   1.00
O1808  O     0.99129   0.31379   0.56877   0.00000  Uiso   1.00
O1809  O     0.75989   0.48285   0.44371   0.00000  Uiso   1.00
O1810  O     0.76467   0.48330   0.19367   0.00000  Uiso   1.00
O1811  O     0.75829   0.48421   0.94299   0.00000  Uiso   1.00
O1812  O     0.76447   0.48384   0.69138   0.00000  Uiso   1.00
O1813  O     0.99427   0.64821   0.31761   0.00000  Uiso   1.00
O1814  O     0.98918   0.64541   0.07069   0.00000  Uiso   1.00
O1815  O     0.99037   0.64825   0.81907   0.00000  Uiso   1.00
O1816  O     0.99523   0.64943   0.56883   0.00000  Uiso   1.00
O1817  O     0.75452   0.81401   0.44424   0.00000  Uiso   1.00
O1818  O     0.98986   0.98496   0.07514   0.00000  Uiso   1.00
O1819  O     0.99290   0.98116   0.32362   0.00000  Uiso   1.00
O1820  O     0.75687   0.81350   0.19547   0.00000  Uiso   1.00
O1821  O     0.75933   0.81224   0.94494   0.00000  Uiso   1.00
O1822  O     0.75870   0.81321   0.69594   0.00000  Uiso   1.00
O1823  O     0.98948   0.98374   0.57508   0.00000  Uiso   1.00
O1824  O     0.99505   0.97917   0.82127   0.00000  Uiso   1.00
