data_final_Br-Zn-SABVOH01
_audit_creation_date              2022-12-15
_audit_creation_method            'Materials Studio'
_symmetry_space_group_name_H-M    'P1'
_symmetry_Int_Tables_number       1
_symmetry_cell_setting            triclinic
loop_
_symmetry_equiv_pos_as_xyz
  x,y,z
_cell_length_a                    34.0841
_cell_length_b                    36.8359
_cell_length_c                    26.3733
_cell_angle_alpha                 90.0000
_cell_angle_beta                  90.0000
_cell_angle_gamma                 90.0000
loop_
_atom_site_label
_atom_site_type_symbol
_atom_site_fract_x
_atom_site_fract_y
_atom_site_fract_z
_atom_site_U_iso_or_equiv
_atom_site_adp_type
_atom_site_occupancy
Zn1    Zn    0.24733   0.16688   0.25228   0.00000  Uiso   1.00
Zn2    Zn    0.24854   0.16268   0.00407   0.00000  Uiso   1.00
Zn3    Zn    0.24853   0.16516   0.50846   0.00000  Uiso   1.00
Zn4    Zn    0.24787   0.16397   0.75924   0.00000  Uiso   1.00
Zn5    Zn    0.24933   0.16678   0.63617   0.00000  Uiso   1.00
Zn6    Zn    0.24665   0.16248   0.88314   0.00000  Uiso   1.00
Zn7    Zn    0.00040   0.33354   0.38018   0.00000  Uiso   1.00
Zn8    Zn    0.00104   0.33549   0.50587   0.00000  Uiso   1.00
Zn9    Zn    0.00004   0.33075   0.63141   0.00000  Uiso   1.00
Zn10   Zn    0.24726   0.50315   0.26449   0.00000  Uiso   1.00
Zn11   Zn    0.24745   0.49855   0.51267   0.00000  Uiso   1.00
Zn12   Zn    0.24945   0.49854   0.63729   0.00000  Uiso   1.00
Zn13   Zn    0.00065   0.66824   0.50407   0.00000  Uiso   1.00
Zn14   Zn    0.00033   0.66379   0.62876   0.00000  Uiso   1.00
Zn15   Zn    0.24777   0.83053   0.25566   0.00000  Uiso   1.00
Zn16   Zn    0.24747   0.82800   0.00804   0.00000  Uiso   1.00
Zn17   Zn    0.24772   0.83104   0.13414   0.00000  Uiso   1.00
Zn18   Zn    0.24870   0.83498   0.50701   0.00000  Uiso   1.00
Zn19   Zn    0.24534   0.82997   0.88150   0.00000  Uiso   1.00
Zn20   Zn    0.24553   0.83181   0.75746   0.00000  Uiso   1.00
Zn21   Zn    0.49987   0.00188   0.38467   0.00000  Uiso   1.00
Zn22   Zn    0.49853   0.00285   0.26181   0.00000  Uiso   1.00
Zn23   Zn    0.25085   0.16665   0.12921   0.00000  Uiso   1.00
Zn24   Zn    0.25035   0.16616   0.38133   0.00000  Uiso   1.00
Zn25   Zn    0.49846   0.00071   0.75587   0.00000  Uiso   1.00
Zn26   Zn    0.49633   0.33538   0.25502   0.00000  Uiso   1.00
Zn27   Zn    0.49963   0.33419   0.13034   0.00000  Uiso   1.00
Zn28   Zn    0.49728   0.33329   0.00378   0.00000  Uiso   1.00
Zn29   Zn    0.49982   0.33211   0.37859   0.00000  Uiso   1.00
Zn30   Zn    0.49914   0.33194   0.75672   0.00000  Uiso   1.00
Zn31   Zn    0.49827   0.33458   0.50664   0.00000  Uiso   1.00
Zn32   Zn    0.25207   0.50111   0.38778   0.00000  Uiso   1.00
Zn33   Zn    0.25034   0.50170   0.13697   0.00000  Uiso   1.00
Zn34   Zn    0.25149   0.50088   0.01436   0.00000  Uiso   1.00
Zn35   Zn    0.25139   0.49770   0.88543   0.00000  Uiso   1.00
Zn36   Zn    0.25053   0.49797   0.76103   0.00000  Uiso   1.00
Zn37   Zn    0.49920   0.66676   0.01127   0.00000  Uiso   1.00
Zn38   Zn    0.49929   0.66546   0.26329   0.00000  Uiso   1.00
Zn39   Zn    0.49935   0.66456   0.13711   0.00000  Uiso   1.00
Zn40   Zn    0.49887   0.66705   0.51208   0.00000  Uiso   1.00
Zn41   Zn    0.49838   0.99727   0.00536   0.00000  Uiso   1.00
Zn42   Zn    0.25023   0.83372   0.38250   0.00000  Uiso   1.00
Zn43   Zn    0.49941   0.99728   0.63391   0.00000  Uiso   1.00
Zn44   Zn    0.25044   0.83526   0.63188   0.00000  Uiso   1.00
Zn45   Zn    0.74820   0.16631   0.12459   0.00000  Uiso   1.00
Zn46   Zn    0.74726   0.16839   0.25293   0.00000  Uiso   1.00
Zn47   Zn    0.74890   0.17053   0.37691   0.00000  Uiso   1.00
Zn48   Zn    0.74973   0.16043   0.00400   0.00000  Uiso   1.00
Zn49   Zn    0.74927   0.16849   0.50268   0.00000  Uiso   1.00
Zn50   Zn    0.50004   0.00296   0.51208   0.00000  Uiso   1.00
Zn51   Zn    0.74968   0.16891   0.62683   0.00000  Uiso   1.00
Zn52   Zn    0.50165   0.33033   0.88058   0.00000  Uiso   1.00
Zn53   Zn    0.50005   0.33183   0.62806   0.00000  Uiso   1.00
Zn54   Zn    0.74927   0.49878   0.25497   0.00000  Uiso   1.00
Zn55   Zn    0.74494   0.50016   0.00432   0.00000  Uiso   1.00
Zn56   Zn    0.74835   0.49837   0.38030   0.00000  Uiso   1.00
Zn57   Zn    0.74721   0.50190   0.12976   0.00000  Uiso   1.00
Zn58   Zn    0.74640   0.50049   0.75690   0.00000  Uiso   1.00
Zn59   Zn    0.74645   0.49974   0.87970   0.00000  Uiso   1.00
Zn60   Zn    0.74901   0.49625   0.50493   0.00000  Uiso   1.00
Zn61   Zn    0.74823   0.50343   0.62905   0.00000  Uiso   1.00
Zn62   Zn    0.50035   0.66393   0.38647   0.00000  Uiso   1.00
Zn63   Zn    0.50035   0.67146   0.88538   0.00000  Uiso   1.00
Zn64   Zn    0.50013   0.67016   0.63511   0.00000  Uiso   1.00
Zn65   Zn    0.50257   0.67016   0.76112   0.00000  Uiso   1.00
Zn66   Zn    0.50112   0.99593   0.13365   0.00000  Uiso   1.00
Zn67   Zn    0.74938   0.83137   0.25492   0.00000  Uiso   1.00
Zn68   Zn    0.50027   0.99728   0.87893   0.00000  Uiso   1.00
Zn69   Zn    0.74971   0.83196   0.75428   0.00000  Uiso   1.00
Zn70   Zn    0.99638   0.00495   0.25439   0.00000  Uiso   1.00
Zn71   Zn    0.99822   0.00011   0.00872   0.00000  Uiso   1.00
Zn72   Zn    0.99891   0.00224   0.37935   0.00000  Uiso   1.00
Zn73   Zn    0.75357   0.16873   0.87844   0.00000  Uiso   1.00
Zn74   Zn    0.99968   0.00284   0.50224   0.00000  Uiso   1.00
Zn75   Zn    0.75156   0.16336   0.75062   0.00000  Uiso   1.00
Zn76   Zn    0.99840   0.00017   0.62826   0.00000  Uiso   1.00
Zn77   Zn    0.99780   0.33168   0.13095   0.00000  Uiso   1.00
Zn78   Zn    0.99948   0.33879   0.00683   0.00000  Uiso   1.00
Zn79   Zn    0.99804   0.33428   0.25329   0.00000  Uiso   1.00
Zn80   Zn    0.99675   0.33716   0.75561   0.00000  Uiso   1.00
Zn81   Zn    0.99922   0.33250   0.88305   0.00000  Uiso   1.00
Zn82   Zn    0.99798   0.66513   0.00092   0.00000  Uiso   1.00
Zn83   Zn    0.99692   0.66426   0.25246   0.00000  Uiso   1.00
Zn84   Zn    0.99889   0.66601   0.37621   0.00000  Uiso   1.00
Zn85   Zn    0.99950   0.66139   0.12771   0.00000  Uiso   1.00
Zn86   Zn    0.99963   0.66139   0.87667   0.00000  Uiso   1.00
Zn87   Zn    0.99721   0.66882   0.74995   0.00000  Uiso   1.00
Zn88   Zn    0.99821   0.99946   0.13393   0.00000  Uiso   1.00
Zn89   Zn    0.75099   0.83142   0.00272   0.00000  Uiso   1.00
Zn90   Zn    0.75133   0.83472   0.38117   0.00000  Uiso   1.00
Zn91   Zn    0.75253   0.83629   0.12726   0.00000  Uiso   1.00
Zn92   Zn    0.75348   0.83633   0.87833   0.00000  Uiso   1.00
Zn93   Zn    0.75044   0.83183   0.50725   0.00000  Uiso   1.00
Zn94   Zn    0.75126   0.83285   0.62878   0.00000  Uiso   1.00
Zn95   Zn    0.99696   0.99956   0.75720   0.00000  Uiso   1.00
Zn96   Zn    0.99975   0.99914   0.88366   0.00000  Uiso   1.00
Br97   Br    0.11828   0.02466   0.21692   0.00000  Uiso   1.00
Br98   Br    0.11891   0.02799   0.45807   0.00000  Uiso   1.00
Br99   Br    0.13064   0.18587   0.09791   0.00000  Uiso   1.00
Br100  Br    0.11723   0.02382   0.71498   0.00000  Uiso   1.00
Br101  Br    0.11150   0.02573   0.96608   0.00000  Uiso   1.00
Br102  Br    0.13984   0.19740   0.59748   0.00000  Uiso   1.00
Br103  Br    0.13370   0.19459   0.84989   0.00000  Uiso   1.00
Br104  Br    0.12158   0.35829   0.22042   0.00000  Uiso   1.00
Br105  Br    0.11724   0.35489   0.47126   0.00000  Uiso   1.00
Br106  Br    0.14259   0.20059   0.33993   0.00000  Uiso   1.00
Br107  Br    0.11491   0.36265   0.96941   0.00000  Uiso   1.00
Br108  Br    0.11410   0.36149   0.71750   0.00000  Uiso   1.00
Br109  Br    0.13928   0.52327   0.09564   0.00000  Uiso   1.00
Br110  Br    0.13767   0.52045   0.34993   0.00000  Uiso   1.00
Br111  Br    0.13484   0.52394   0.59845   0.00000  Uiso   1.00
Br112  Br    0.14090   0.52748   0.84011   0.00000  Uiso   1.00
Br113  Br    0.12030   0.68508   0.22588   0.00000  Uiso   1.00
Br114  Br    0.11848   0.68961   0.47017   0.00000  Uiso   1.00
Br115  Br    0.11145   0.69153   0.70762   0.00000  Uiso   1.00
Br116  Br    0.10893   0.69085   0.96524   0.00000  Uiso   1.00
Br117  Br    0.13162   0.85809   0.10439   0.00000  Uiso   1.00
Br118  Br    0.14176   0.86087   0.33832   0.00000  Uiso   1.00
Br119  Br    0.13507   0.85786   0.59288   0.00000  Uiso   1.00
Br120  Br    0.13159   0.85629   0.84937   0.00000  Uiso   1.00
Br121  Br    0.36805   0.14834   0.21589   0.00000  Uiso   1.00
Br122  Br    0.35681   0.13699   0.46740   0.00000  Uiso   1.00
Br123  Br    0.36741   0.14607   0.71974   0.00000  Uiso   1.00
Br124  Br    0.36805   0.13865   0.97195   0.00000  Uiso   1.00
Br125  Br    0.38662   0.30679   0.09185   0.00000  Uiso   1.00
Br126  Br    0.38731   0.31036   0.34092   0.00000  Uiso   1.00
Br127  Br    0.38420   0.30537   0.59689   0.00000  Uiso   1.00
Br128  Br    0.39023   0.30137   0.84106   0.00000  Uiso   1.00
Br129  Br    0.37231   0.48149   0.21937   0.00000  Uiso   1.00
Br130  Br    0.36346   0.47664   0.47275   0.00000  Uiso   1.00
Br131  Br    0.36290   0.47721   0.72704   0.00000  Uiso   1.00
Br132  Br    0.35894   0.47313   0.97085   0.00000  Uiso   1.00
Br133  Br    0.38171   0.64174   0.09368   0.00000  Uiso   1.00
Br134  Br    0.38169   0.64388   0.34999   0.00000  Uiso   1.00
Br135  Br    0.38185   0.64153   0.60357   0.00000  Uiso   1.00
Br136  Br    0.37830   0.64459   0.85377   0.00000  Uiso   1.00
Br137  Br    0.38627   0.96782   0.09126   0.00000  Uiso   1.00
Br138  Br    0.38295   0.98367   0.35762   0.00000  Uiso   1.00
Br139  Br    0.36473   0.80458   0.22079   0.00000  Uiso   1.00
Br140  Br    0.37017   0.81519   0.46892   0.00000  Uiso   1.00
Br141  Br    0.37971   0.97044   0.59863   0.00000  Uiso   1.00
Br142  Br    0.37739   0.97595   0.84578   0.00000  Uiso   1.00
Br143  Br    0.36799   0.81676   0.72317   0.00000  Uiso   1.00
Br144  Br    0.36760   0.80796   0.97030   0.00000  Uiso   1.00
Br145  Br    0.61037   0.02438   0.47061   0.00000  Uiso   1.00
Br146  Br    0.61586   0.02451   0.22079   0.00000  Uiso   1.00
Br147  Br    0.63002   0.19476   0.08933   0.00000  Uiso   1.00
Br148  Br    0.63461   0.19108   0.34006   0.00000  Uiso   1.00
Br149  Br    0.63580   0.18838   0.84685   0.00000  Uiso   1.00
Br150  Br    0.63265   0.19294   0.59173   0.00000  Uiso   1.00
Br151  Br    0.62659   0.01718   0.72433   0.00000  Uiso   1.00
Br152  Br    0.60383   0.02879   0.95724   0.00000  Uiso   1.00
Br153  Br    0.61860   0.35559   0.21581   0.00000  Uiso   1.00
Br154  Br    0.61604   0.36435   0.46750   0.00000  Uiso   1.00
Br155  Br    0.61571   0.35109   0.72482   0.00000  Uiso   1.00
Br156  Br    0.60921   0.35823   0.97121   0.00000  Uiso   1.00
Br157  Br    0.62812   0.52358   0.09826   0.00000  Uiso   1.00
Br158  Br    0.64053   0.52651   0.34087   0.00000  Uiso   1.00
Br159  Br    0.62933   0.52513   0.59374   0.00000  Uiso   1.00
Br160  Br    0.63120   0.52316   0.84501   0.00000  Uiso   1.00
Br161  Br    0.61654   0.68800   0.22532   0.00000  Uiso   1.00
Br162  Br    0.62466   0.68226   0.48407   0.00000  Uiso   1.00
Br163  Br    0.61534   0.69780   0.71758   0.00000  Uiso   1.00
Br164  Br    0.62036   0.68787   0.97521   0.00000  Uiso   1.00
Br165  Br    0.63842   0.86561   0.09274   0.00000  Uiso   1.00
Br166  Br    0.63530   0.86195   0.34794   0.00000  Uiso   1.00
Br167  Br    0.63288   0.85573   0.59336   0.00000  Uiso   1.00
Br168  Br    0.62976   0.85431   0.84768   0.00000  Uiso   1.00
Br169  Br    0.86804   0.14566   0.45917   0.00000  Uiso   1.00
Br170  Br    0.87238   0.14969   0.21871   0.00000  Uiso   1.00
Br171  Br    0.87235   0.14845   0.72360   0.00000  Uiso   1.00
Br172  Br    0.85516   0.13469   0.96707   0.00000  Uiso   1.00
Br173  Br    0.88682   0.30672   0.09294   0.00000  Uiso   1.00
Br174  Br    0.88290   0.32027   0.35079   0.00000  Uiso   1.00
Br175  Br    0.88939   0.30876   0.58997   0.00000  Uiso   1.00
Br176  Br    0.88951   0.30831   0.84936   0.00000  Uiso   1.00
Br177  Br    0.86231   0.47627   0.21832   0.00000  Uiso   1.00
Br178  Br    0.86916   0.48076   0.47375   0.00000  Uiso   1.00
Br179  Br    0.86433   0.47844   0.71971   0.00000  Uiso   1.00
Br180  Br    0.85973   0.46874   0.96337   0.00000  Uiso   1.00
Br181  Br    0.88025   0.64229   0.09538   0.00000  Uiso   1.00
Br182  Br    0.88139   0.64279   0.34494   0.00000  Uiso   1.00
Br183  Br    0.88314   0.64109   0.59201   0.00000  Uiso   1.00
Br184  Br    0.88050   0.64317   0.84466   0.00000  Uiso   1.00
Br185  Br    0.88426   0.98210   0.34928   0.00000  Uiso   1.00
Br186  Br    0.88562   0.96924   0.08862   0.00000  Uiso   1.00
Br187  Br    0.86807   0.81070   0.47149   0.00000  Uiso   1.00
Br188  Br    0.86607   0.81256   0.22298   0.00000  Uiso   1.00
Br189  Br    0.87006   0.81049   0.71897   0.00000  Uiso   1.00
Br190  Br    0.88913   0.97217   0.83679   0.00000  Uiso   1.00
Br191  Br    0.88344   0.97710   0.59330   0.00000  Uiso   1.00
Br192  Br    0.86324   0.80608   0.96213   0.00000  Uiso   1.00
H193   H     0.08859   0.07701   0.14528   0.00000  Uiso   1.00
H194   H     0.15324   0.10184   0.14890   0.00000  Uiso   1.00
H195   H     0.01208   0.04714   0.44010   0.00000  Uiso   1.00
H196   H     0.18217   0.06483   0.25250   0.00000  Uiso   1.00
H197   H     0.08550   0.07808   0.39057   0.00000  Uiso   1.00
H198   H     0.14616   0.11179   0.39630   0.00000  Uiso   1.00
H199   H     0.17926   0.07592   0.49203   0.00000  Uiso   1.00
H200   H     0.01212   0.04587   0.19483   0.00000  Uiso   1.00
H201   H     0.09418   0.07459   0.64286   0.00000  Uiso   1.00
H202   H     0.15676   0.10201   0.64714   0.00000  Uiso   1.00
H203   H     0.17831   0.07165   0.74450   0.00000  Uiso   1.00
H204   H     0.08133   0.08297   0.88186   0.00000  Uiso   1.00
H205   H     0.14082   0.11534   0.88773   0.00000  Uiso   1.00
H206   H     0.00362   0.04754   0.69447   0.00000  Uiso   1.00
H207   H     0.18135   0.06899   0.99461   0.00000  Uiso   1.00
H208   H     0.00892   0.04579   0.94178   0.00000  Uiso   1.00
H209   H     0.07366   0.24152   0.12008   0.00000  Uiso   1.00
H210   H     0.00575   0.37901   0.19207   0.00000  Uiso   1.00
H211   H     0.10479   0.27996   0.02674   0.00000  Uiso   1.00
H212   H     0.07760   0.25117   0.36543   0.00000  Uiso   1.00
H213   H     0.16998   0.26159   0.25642   0.00000  Uiso   1.00
H214   H     0.10538   0.28742   0.26135   0.00000  Uiso   1.00
H215   H     0.16522   0.24554   0.02464   0.00000  Uiso   1.00
H216   H     0.02333   0.37318   0.44664   0.00000  Uiso   1.00
H217   H     0.24394   0.21366   0.31372   0.00000  Uiso   1.00
H218   H     0.01237   0.29011   0.31969   0.00000  Uiso   1.00
H219   H     0.01026   0.38053   0.93850   0.00000  Uiso   1.00
H220   H     0.07803   0.24496   0.62052   0.00000  Uiso   1.00
H221   H     0.16913   0.24999   0.52001   0.00000  Uiso   1.00
H222   H     0.08051   0.24821   0.87215   0.00000  Uiso   1.00
H223   H     0.16313   0.24847   0.77498   0.00000  Uiso   1.00
H224   H     0.10434   0.27957   0.77863   0.00000  Uiso   1.00
H225   H     0.10612   0.28162   0.52230   0.00000  Uiso   1.00
H226   H     0.24647   0.20642   0.82282   0.00000  Uiso   1.00
H227   H     0.00653   0.29048   0.81841   0.00000  Uiso   1.00
H228   H     0.01506   0.37310   0.68825   0.00000  Uiso   1.00
H229   H     0.07116   0.57304   0.11894   0.00000  Uiso   1.00
H230   H     0.15334   0.44020   0.15475   0.00000  Uiso   1.00
H231   H     0.09113   0.40444   0.39752   0.00000  Uiso   1.00
H232   H     0.07223   0.57114   0.37218   0.00000  Uiso   1.00
H233   H     0.14991   0.43802   0.40346   0.00000  Uiso   1.00
H234   H     0.16185   0.58021   0.26641   0.00000  Uiso   1.00
H235   H     0.15742   0.57256   0.02079   0.00000  Uiso   1.00
H236   H     0.08930   0.41402   0.15201   0.00000  Uiso   1.00
H237   H     0.23920   0.54932   0.32506   0.00000  Uiso   1.00
H238   H     0.18435   0.40035   0.25457   0.00000  Uiso   1.00
H239   H     0.07551   0.57267   0.62668   0.00000  Uiso   1.00
H240   H     0.15210   0.44124   0.65115   0.00000  Uiso   1.00
H241   H     0.17094   0.59169   0.50902   0.00000  Uiso   1.00
H242   H     0.14539   0.44086   0.90007   0.00000  Uiso   1.00
H243   H     0.08196   0.40961   0.89236   0.00000  Uiso   1.00
H244   H     0.09030   0.40781   0.64907   0.00000  Uiso   1.00
H245   H     0.16867   0.58267   0.76889   0.00000  Uiso   1.00
H246   H     0.07397   0.57311   0.86728   0.00000  Uiso   1.00
H247   H     0.17918   0.40477   0.75007   0.00000  Uiso   1.00
H248   H     0.17592   0.41268   0.99848   0.00000  Uiso   1.00
H249   H     0.17853   0.40383   0.50094   0.00000  Uiso   1.00
H250   H     0.08171   0.74391   0.14126   0.00000  Uiso   1.00
H251   H     0.10128   0.60910   0.02055   0.00000  Uiso   1.00
H252   H     0.17814   0.73736   0.25183   0.00000  Uiso   1.00
H253   H     0.08131   0.75070   0.38446   0.00000  Uiso   1.00
H254   H     0.14729   0.77390   0.14597   0.00000  Uiso   1.00
H255   H     0.09535   0.60636   0.27134   0.00000  Uiso   1.00
H256   H     0.14298   0.78301   0.39323   0.00000  Uiso   1.00
H257   H     0.01457   0.71139   0.43612   0.00000  Uiso   1.00
H258   H     0.17695   0.73122   0.00128   0.00000  Uiso   1.00
H259   H     0.01886   0.70697   0.93662   0.00000  Uiso   1.00
H260   H     0.07709   0.75910   0.62964   0.00000  Uiso   1.00
H261   H     0.17904   0.73472   0.74089   0.00000  Uiso   1.00
H262   H     0.08540   0.74134   0.88367   0.00000  Uiso   1.00
H263   H     0.15025   0.76760   0.89635   0.00000  Uiso   1.00
H264   H     0.13615   0.78870   0.63723   0.00000  Uiso   1.00
H265   H     0.10458   0.61526   0.77078   0.00000  Uiso   1.00
H266   H     0.01158   0.62279   0.56305   0.00000  Uiso   1.00
H267   H     0.10961   0.62209   0.51339   0.00000  Uiso   1.00
H268   H     0.00907   0.71274   0.68416   0.00000  Uiso   1.00
H269   H     0.18456   0.73698   0.50787   0.00000  Uiso   1.00
H270   H     0.24593   0.78121   0.94416   0.00000  Uiso   1.00
H271   H     0.07420   0.91189   0.12966   0.00000  Uiso   1.00
H272   H     0.07347   0.90699   0.36641   0.00000  Uiso   1.00
H273   H     0.16855   0.92409   0.26949   0.00000  Uiso   1.00
H274   H     0.10450   0.95071   0.27844   0.00000  Uiso   1.00
H275   H     0.17076   0.91829   0.01566   0.00000  Uiso   1.00
H276   H     0.10569   0.95033   0.02052   0.00000  Uiso   1.00
H277   H     0.24755   0.87569   0.06830   0.00000  Uiso   1.00
H278   H     0.06894   0.90271   0.62020   0.00000  Uiso   1.00
H279   H     0.06743   0.90119   0.88491   0.00000  Uiso   1.00
H280   H     0.16609   0.92167   0.76196   0.00000  Uiso   1.00
H281   H     0.10334   0.95233   0.75973   0.00000  Uiso   1.00
H282   H     0.00846   0.95520   0.81737   0.00000  Uiso   1.00
H283   H     0.09985   0.95130   0.51358   0.00000  Uiso   1.00
H284   H     0.16264   0.91616   0.52113   0.00000  Uiso   1.00
H285   H     0.23899   0.87697   0.81968   0.00000  Uiso   1.00
H286   H     0.00777   0.95994   0.56556   0.00000  Uiso   1.00
H287   H     0.43320   0.09969   0.25213   0.00000  Uiso   1.00
H288   H     0.32950   0.07308   0.13821   0.00000  Uiso   1.00
H289   H     0.39419   0.04016   0.13438   0.00000  Uiso   1.00
H290   H     0.32940   0.08812   0.38488   0.00000  Uiso   1.00
H291   H     0.39445   0.06169   0.39366   0.00000  Uiso   1.00
H292   H     0.43510   0.10082   0.00798   0.00000  Uiso   1.00
H293   H     0.25911   0.11994   0.44544   0.00000  Uiso   1.00
H294   H     0.25848   0.12035   0.18612   0.00000  Uiso   1.00
H295   H     0.42710   0.09803   0.49988   0.00000  Uiso   1.00
H296   H     0.25514   0.12022   0.69182   0.00000  Uiso   1.00
H297   H     0.42982   0.09544   0.74905   0.00000  Uiso   1.00
H298   H     0.33540   0.09050   0.64786   0.00000  Uiso   1.00
H299   H     0.39700   0.06114   0.65097   0.00000  Uiso   1.00
H300   H     0.33934   0.08586   0.89478   0.00000  Uiso   1.00
H301   H     0.40228   0.05739   0.89729   0.00000  Uiso   1.00
H302   H     0.26224   0.11994   0.94421   0.00000  Uiso   1.00
H303   H     0.31816   0.26523   0.12380   0.00000  Uiso   1.00
H304   H     0.41760   0.24878   0.25828   0.00000  Uiso   1.00
H305   H     0.41544   0.25163   0.01763   0.00000  Uiso   1.00
H306   H     0.32503   0.25620   0.36695   0.00000  Uiso   1.00
H307   H     0.35689   0.21489   0.26487   0.00000  Uiso   1.00
H308   H     0.40136   0.38629   0.14398   0.00000  Uiso   1.00
H309   H     0.35227   0.21394   0.01512   0.00000  Uiso   1.00
H310   H     0.48835   0.28600   0.30774   0.00000  Uiso   1.00
H311   H     0.39622   0.39136   0.39624   0.00000  Uiso   1.00
H312   H     0.25951   0.20757   0.06407   0.00000  Uiso   1.00
H313   H     0.49727   0.37866   0.44071   0.00000  Uiso   1.00
H314   H     0.31516   0.26270   0.63149   0.00000  Uiso   1.00
H315   H     0.41495   0.24705   0.76699   0.00000  Uiso   1.00
H316   H     0.48483   0.28751   0.56927   0.00000  Uiso   1.00
H317   H     0.35132   0.22552   0.51743   0.00000  Uiso   1.00
H318   H     0.32591   0.24946   0.86710   0.00000  Uiso   1.00
H319   H     0.25638   0.20906   0.57142   0.00000  Uiso   1.00
H320   H     0.41339   0.25402   0.51427   0.00000  Uiso   1.00
H321   H     0.35144   0.22325   0.77720   0.00000  Uiso   1.00
H322   H     0.39066   0.37510   0.89050   0.00000  Uiso   1.00
H323   H     0.40118   0.38987   0.64507   0.00000  Uiso   1.00
H324   H     0.49378   0.37956   0.69289   0.00000  Uiso   1.00
H325   H     0.43414   0.43307   0.25221   0.00000  Uiso   1.00
H326   H     0.42150   0.57883   0.01451   0.00000  Uiso   1.00
H327   H     0.25105   0.45556   0.20323   0.00000  Uiso   1.00
H328   H     0.41085   0.58592   0.27039   0.00000  Uiso   1.00
H329   H     0.34609   0.56041   0.27531   0.00000  Uiso   1.00
H330   H     0.33490   0.42819   0.39368   0.00000  Uiso   1.00
H331   H     0.33854   0.41993   0.14752   0.00000  Uiso   1.00
H332   H     0.26237   0.45378   0.44808   0.00000  Uiso   1.00
H333   H     0.36005   0.54618   0.01957   0.00000  Uiso   1.00
H334   H     0.31907   0.59588   0.12480   0.00000  Uiso   1.00
H335   H     0.32185   0.59245   0.37857   0.00000  Uiso   1.00
H336   H     0.42434   0.42553   0.49619   0.00000  Uiso   1.00
H337   H     0.25392   0.54979   0.07360   0.00000  Uiso   1.00
H338   H     0.33572   0.41913   0.64705   0.00000  Uiso   1.00
H339   H     0.42566   0.42716   0.75168   0.00000  Uiso   1.00
H340   H     0.34801   0.56277   0.53012   0.00000  Uiso   1.00
H341   H     0.32178   0.59097   0.87584   0.00000  Uiso   1.00
H342   H     0.32886   0.41187   0.88772   0.00000  Uiso   1.00
H343   H     0.25754   0.45368   0.69628   0.00000  Uiso   1.00
H344   H     0.35805   0.55686   0.78149   0.00000  Uiso   1.00
H345   H     0.41710   0.59074   0.77663   0.00000  Uiso   1.00
H346   H     0.33057   0.58432   0.62682   0.00000  Uiso   1.00
H347   H     0.42663   0.42994   0.99611   0.00000  Uiso   1.00
H348   H     0.26302   0.45331   0.95337   0.00000  Uiso   1.00
H349   H     0.40899   0.59223   0.52405   0.00000  Uiso   1.00
H350   H     0.25837   0.54310   0.82268   0.00000  Uiso   1.00
H351   H     0.25519   0.54060   0.57262   0.00000  Uiso   1.00
H352   H     0.42941   0.75748   0.25330   0.00000  Uiso   1.00
H353   H     0.33732   0.75629   0.14693   0.00000  Uiso   1.00
H354   H     0.39873   0.72111   0.15001   0.00000  Uiso   1.00
H355   H     0.47740   0.61962   0.32564   0.00000  Uiso   1.00
H356   H     0.33758   0.75810   0.39814   0.00000  Uiso   1.00
H357   H     0.40180   0.72765   0.40421   0.00000  Uiso   1.00
H358   H     0.25856   0.78806   0.43849   0.00000  Uiso   1.00
H359   H     0.49302   0.61908   0.07501   0.00000  Uiso   1.00
H360   H     0.42480   0.75956   0.49426   0.00000  Uiso   1.00
H361   H     0.25871   0.78475   0.19579   0.00000  Uiso   1.00
H362   H     0.48758   0.70892   0.19951   0.00000  Uiso   1.00
H363   H     0.49345   0.62109   0.58136   0.00000  Uiso   1.00
H364   H     0.43195   0.76519   0.75222   0.00000  Uiso   1.00
H365   H     0.33225   0.75072   0.63570   0.00000  Uiso   1.00
H366   H     0.40016   0.72917   0.64836   0.00000  Uiso   1.00
H367   H     0.33415   0.75121   0.88747   0.00000  Uiso   1.00
H368   H     0.39867   0.72390   0.89502   0.00000  Uiso   1.00
H369   H     0.26068   0.78676   0.69078   0.00000  Uiso   1.00
H370   H     0.49499   0.62327   0.82602   0.00000  Uiso   1.00
H371   H     0.42468   0.75359   0.99959   0.00000  Uiso   1.00
H372   H     0.41341   0.90666   0.00424   0.00000  Uiso   1.00
H373   H     0.35184   0.87921   0.01507   0.00000  Uiso   1.00
H374   H     0.32633   0.91567   0.12019   0.00000  Uiso   1.00
H375   H     0.41004   0.92424   0.27704   0.00000  Uiso   1.00
H376   H     0.35380   0.88693   0.27653   0.00000  Uiso   1.00
H377   H     0.32233   0.93030   0.37657   0.00000  Uiso   1.00
H378   H     0.25455   0.88016   0.31924   0.00000  Uiso   1.00
H379   H     0.48766   0.95129   0.06495   0.00000  Uiso   1.00
H380   H     0.32498   0.91293   0.62439   0.00000  Uiso   1.00
H381   H     0.40776   0.92580   0.77741   0.00000  Uiso   1.00
H382   H     0.34783   0.89021   0.78066   0.00000  Uiso   1.00
H383   H     0.41866   0.91723   0.52002   0.00000  Uiso   1.00
H384   H     0.32237   0.91996   0.86194   0.00000  Uiso   1.00
H385   H     0.35567   0.88585   0.52164   0.00000  Uiso   1.00
H386   H     0.49820   0.95187   0.81716   0.00000  Uiso   1.00
H387   H     0.26009   0.87907   0.56644   0.00000  Uiso   1.00
H388   H     0.50652   0.04632   0.44831   0.00000  Uiso   1.00
H389   H     0.59180   0.07226   0.13888   0.00000  Uiso   1.00
H390   H     0.65682   0.10048   0.14226   0.00000  Uiso   1.00
H391   H     0.67644   0.07356   0.24474   0.00000  Uiso   1.00
H392   H     0.59198   0.07719   0.39858   0.00000  Uiso   1.00
H393   H     0.64971   0.11159   0.39505   0.00000  Uiso   1.00
H394   H     0.51474   0.04236   0.19343   0.00000  Uiso   1.00
H395   H     0.67226   0.08104   0.49237   0.00000  Uiso   1.00
H396   H     0.66905   0.07849   0.98266   0.00000  Uiso   1.00
H397   H     0.50996   0.04071   0.94212   0.00000  Uiso   1.00
H398   H     0.59473   0.07373   0.65019   0.00000  Uiso   1.00
H399   H     0.64883   0.10877   0.65021   0.00000  Uiso   1.00
H400   H     0.68224   0.07360   0.74857   0.00000  Uiso   1.00
H401   H     0.58300   0.08788   0.88525   0.00000  Uiso   1.00
H402   H     0.64861   0.11404   0.89553   0.00000  Uiso   1.00
H403   H     0.50170   0.04738   0.69385   0.00000  Uiso   1.00
H404   H     0.74053   0.11993   0.68952   0.00000  Uiso   1.00
H405   H     0.51548   0.37791   0.19339   0.00000  Uiso   1.00
H406   H     0.56891   0.24250   0.12090   0.00000  Uiso   1.00
H407   H     0.66649   0.24918   0.01779   0.00000  Uiso   1.00
H408   H     0.57010   0.23559   0.36752   0.00000  Uiso   1.00
H409   H     0.66553   0.25047   0.26154   0.00000  Uiso   1.00
H410   H     0.60352   0.27690   0.27463   0.00000  Uiso   1.00
H411   H     0.60561   0.28090   0.02215   0.00000  Uiso   1.00
H412   H     0.50610   0.29011   0.06777   0.00000  Uiso   1.00
H413   H     0.74930   0.21638   0.31722   0.00000  Uiso   1.00
H414   H     0.68546   0.39779   0.24707   0.00000  Uiso   1.00
H415   H     0.74956   0.21135   0.05986   0.00000  Uiso   1.00
H416   H     0.59736   0.27848   0.51728   0.00000  Uiso   1.00
H417   H     0.57080   0.23438   0.62348   0.00000  Uiso   1.00
H418   H     0.51344   0.37598   0.93858   0.00000  Uiso   1.00
H419   H     0.57579   0.24135   0.87475   0.00000  Uiso   1.00
H420   H     0.66146   0.24609   0.76812   0.00000  Uiso   1.00
H421   H     0.59888   0.27560   0.76886   0.00000  Uiso   1.00
H422   H     0.73788   0.21494   0.56512   0.00000  Uiso   1.00
H423   H     0.66079   0.24302   0.51561   0.00000  Uiso   1.00
H424   H     0.51189   0.28514   0.82156   0.00000  Uiso   1.00
H425   H     0.56929   0.57237   0.12695   0.00000  Uiso   1.00
H426   H     0.64713   0.44040   0.14962   0.00000  Uiso   1.00
H427   H     0.57157   0.57163   0.37296   0.00000  Uiso   1.00
H428   H     0.64842   0.44610   0.38454   0.00000  Uiso   1.00
H429   H     0.74761   0.44993   0.44290   0.00000  Uiso   1.00
H430   H     0.65753   0.57360   0.02017   0.00000  Uiso   1.00
H431   H     0.66612   0.58336   0.26736   0.00000  Uiso   1.00
H432   H     0.59003   0.40791   0.38635   0.00000  Uiso   1.00
H433   H     0.58248   0.41453   0.14038   0.00000  Uiso   1.00
H434   H     0.67413   0.41163   0.49731   0.00000  Uiso   1.00
H435   H     0.57017   0.57453   0.62267   0.00000  Uiso   1.00
H436   H     0.64217   0.44768   0.64418   0.00000  Uiso   1.00
H437   H     0.57997   0.41350   0.64149   0.00000  Uiso   1.00
H438   H     0.57187   0.57910   0.86804   0.00000  Uiso   1.00
H439   H     0.64343   0.44399   0.89162   0.00000  Uiso   1.00
H440   H     0.67474   0.40782   0.73970   0.00000  Uiso   1.00
H441   H     0.58081   0.40990   0.88911   0.00000  Uiso   1.00
H442   H     0.66111   0.57665   0.51930   0.00000  Uiso   1.00
H443   H     0.67185   0.40967   0.99602   0.00000  Uiso   1.00
H444   H     0.66816   0.58155   0.76033   0.00000  Uiso   1.00
H445   H     0.74786   0.45260   0.93986   0.00000  Uiso   1.00
H446   H     0.74491   0.54910   0.81572   0.00000  Uiso   1.00
H447   H     0.73925   0.54720   0.55862   0.00000  Uiso   1.00
H448   H     0.64318   0.78734   0.14162   0.00000  Uiso   1.00
H449   H     0.58007   0.75278   0.14092   0.00000  Uiso   1.00
H450   H     0.67509   0.73838   0.24871   0.00000  Uiso   1.00
H451   H     0.58559   0.75016   0.39546   0.00000  Uiso   1.00
H452   H     0.60243   0.60879   0.02470   0.00000  Uiso   1.00
H453   H     0.64341   0.78432   0.39207   0.00000  Uiso   1.00
H454   H     0.60486   0.61334   0.27652   0.00000  Uiso   1.00
H455   H     0.67753   0.73918   0.00246   0.00000  Uiso   1.00
H456   H     0.67558   0.73934   0.49926   0.00000  Uiso   1.00
H457   H     0.51067   0.70964   0.44377   0.00000  Uiso   1.00
H458   H     0.58368   0.75246   0.63777   0.00000  Uiso   1.00
H459   H     0.68337   0.73974   0.75043   0.00000  Uiso   1.00
H460   H     0.59082   0.74768   0.89216   0.00000  Uiso   1.00
H461   H     0.60871   0.61757   0.77241   0.00000  Uiso   1.00
H462   H     0.65353   0.77172   0.90189   0.00000  Uiso   1.00
H463   H     0.64201   0.78556   0.64562   0.00000  Uiso   1.00
H464   H     0.59367   0.60064   0.52823   0.00000  Uiso   1.00
H465   H     0.52315   0.70926   0.94897   0.00000  Uiso   1.00
H466   H     0.51633   0.71634   0.69767   0.00000  Uiso   1.00
H467   H     0.74591   0.79280   0.69195   0.00000  Uiso   1.00
H468   H     0.57510   0.90881   0.12486   0.00000  Uiso   1.00
H469   H     0.60687   0.94429   0.02261   0.00000  Uiso   1.00
H470   H     0.67005   0.91739   0.01392   0.00000  Uiso   1.00
H471   H     0.58036   0.91905   0.36947   0.00000  Uiso   1.00
H472   H     0.66454   0.91120   0.26899   0.00000  Uiso   1.00
H473   H     0.60190   0.94182   0.27807   0.00000  Uiso   1.00
H474   H     0.74010   0.87767   0.05887   0.00000  Uiso   1.00
H475   H     0.73806   0.87694   0.31603   0.00000  Uiso   1.00
H476   H     0.50266   0.95341   0.32436   0.00000  Uiso   1.00
H477   H     0.56930   0.90078   0.62537   0.00000  Uiso   1.00
H478   H     0.57232   0.90656   0.87406   0.00000  Uiso   1.00
H479   H     0.66060   0.90331   0.76996   0.00000  Uiso   1.00
H480   H     0.59945   0.93865   0.77408   0.00000  Uiso   1.00
H481   H     0.60259   0.93827   0.52836   0.00000  Uiso   1.00
H482   H     0.66304   0.90946   0.52363   0.00000  Uiso   1.00
H483   H     0.50365   0.95211   0.56723   0.00000  Uiso   1.00
H484   H     0.74109   0.87540   0.57151   0.00000  Uiso   1.00
H485   H     0.73245   0.87865   0.81095   0.00000  Uiso   1.00
H486   H     0.75021   0.12088   0.19401   0.00000  Uiso   1.00
H487   H     0.92715   0.09576   0.24782   0.00000  Uiso   1.00
H488   H     0.84226   0.09086   0.15071   0.00000  Uiso   1.00
H489   H     0.90612   0.06083   0.15216   0.00000  Uiso   1.00
H490   H     0.83088   0.08715   0.38583   0.00000  Uiso   1.00
H491   H     0.89194   0.05727   0.39174   0.00000  Uiso   1.00
H492   H     0.75619   0.12375   0.44108   0.00000  Uiso   1.00
H493   H     0.93093   0.10071   0.48855   0.00000  Uiso   1.00
H494   H     0.93804   0.09950   0.75590   0.00000  Uiso   1.00
H495   H     0.84483   0.09803   0.64323   0.00000  Uiso   1.00
H496   H     0.90541   0.06912   0.64485   0.00000  Uiso   1.00
H497   H     0.82975   0.07890   0.88102   0.00000  Uiso   1.00
H498   H     0.89697   0.05374   0.89412   0.00000  Uiso   1.00
H499   H     0.92203   0.08980   0.99398   0.00000  Uiso   1.00
H500   H     0.75693   0.11868   0.93721   0.00000  Uiso   1.00
H501   H     0.84877   0.21343   0.26396   0.00000  Uiso   1.00
H502   H     0.92386   0.24906   0.01811   0.00000  Uiso   1.00
H503   H     0.82083   0.26336   0.11827   0.00000  Uiso   1.00
H504   H     0.90755   0.24920   0.26696   0.00000  Uiso   1.00
H505   H     0.82425   0.26979   0.37282   0.00000  Uiso   1.00
H506   H     0.85796   0.21137   0.01759   0.00000  Uiso   1.00
H507   H     0.89862   0.39358   0.14826   0.00000  Uiso   1.00
H508   H     0.99866   0.28781   0.06455   0.00000  Uiso   1.00
H509   H     0.88763   0.38366   0.89310   0.00000  Uiso   1.00
H510   H     0.82635   0.26514   0.61973   0.00000  Uiso   1.00
H511   H     0.91571   0.24670   0.76328   0.00000  Uiso   1.00
H512   H     0.85059   0.22012   0.51499   0.00000  Uiso   1.00
H513   H     0.82571   0.25905   0.87671   0.00000  Uiso   1.00
H514   H     0.89712   0.38650   0.64402   0.00000  Uiso   1.00
H515   H     0.84999   0.22280   0.76578   0.00000  Uiso   1.00
H516   H     0.91133   0.25459   0.51748   0.00000  Uiso   1.00
H517   H     0.75567   0.21444   0.81800   0.00000  Uiso   1.00
H518   H     0.98466   0.28506   0.56342   0.00000  Uiso   1.00
H519   H     0.85911   0.54566   0.01236   0.00000  Uiso   1.00
H520   H     0.93065   0.43448   0.24859   0.00000  Uiso   1.00
H521   H     0.84419   0.42245   0.39766   0.00000  Uiso   1.00
H522   H     0.76810   0.45855   0.19405   0.00000  Uiso   1.00
H523   H     0.83285   0.42574   0.14327   0.00000  Uiso   1.00
H524   H     0.85056   0.55357   0.26763   0.00000  Uiso   1.00
H525   H     0.82349   0.58812   0.37032   0.00000  Uiso   1.00
H526   H     0.90577   0.40007   0.40204   0.00000  Uiso   1.00
H527   H     0.91165   0.58824   0.26745   0.00000  Uiso   1.00
H528   H     0.91825   0.57857   0.00901   0.00000  Uiso   1.00
H529   H     0.81906   0.59389   0.12152   0.00000  Uiso   1.00
H530   H     0.75156   0.54184   0.32006   0.00000  Uiso   1.00
H531   H     0.75429   0.54618   0.06358   0.00000  Uiso   1.00
H532   H     0.82650   0.41565   0.88401   0.00000  Uiso   1.00
H533   H     0.92935   0.43770   0.75632   0.00000  Uiso   1.00
H534   H     0.85448   0.55591   0.52252   0.00000  Uiso   1.00
H535   H     0.91766   0.58637   0.51823   0.00000  Uiso   1.00
H536   H     0.91221   0.58835   0.76644   0.00000  Uiso   1.00
H537   H     0.84897   0.55712   0.76947   0.00000  Uiso   1.00
H538   H     0.92422   0.42613   0.99359   0.00000  Uiso   1.00
H539   H     0.83635   0.42044   0.63730   0.00000  Uiso   1.00
H540   H     0.81906   0.59060   0.87264   0.00000  Uiso   1.00
H541   H     0.81781   0.59768   0.62265   0.00000  Uiso   1.00
H542   H     0.76188   0.45403   0.68785   0.00000  Uiso   1.00
H543   H     0.93147   0.42962   0.50065   0.00000  Uiso   1.00
H544   H     0.92634   0.76015   0.24513   0.00000  Uiso   1.00
H545   H     0.83401   0.75030   0.14182   0.00000  Uiso   1.00
H546   H     0.89460   0.71763   0.14102   0.00000  Uiso   1.00
H547   H     0.83761   0.74833   0.39206   0.00000  Uiso   1.00
H548   H     0.90112   0.72253   0.39275   0.00000  Uiso   1.00
H549   H     0.99246   0.61600   0.06068   0.00000  Uiso   1.00
H550   H     0.99570   0.71142   0.18803   0.00000  Uiso   1.00
H551   H     0.75315   0.78817   0.44440   0.00000  Uiso   1.00
H552   H     0.75305   0.78770   0.18324   0.00000  Uiso   1.00
H553   H     0.99988   0.61686   0.31805   0.00000  Uiso   1.00
H554   H     0.92704   0.75956   0.99303   0.00000  Uiso   1.00
H555   H     0.93122   0.76123   0.75125   0.00000  Uiso   1.00
H556   H     0.83555   0.74763   0.63662   0.00000  Uiso   1.00
H557   H     0.90075   0.71978   0.64432   0.00000  Uiso   1.00
H558   H     0.82654   0.74839   0.88015   0.00000  Uiso   1.00
H559   H     0.89126   0.71684   0.89213   0.00000  Uiso   1.00
H560   H     0.75935   0.78857   0.93675   0.00000  Uiso   1.00
H561   H     0.99010   0.62152   0.80634   0.00000  Uiso   1.00
H562   H     0.93033   0.76435   0.50100   0.00000  Uiso   1.00
H563   H     0.91534   0.91240   0.00689   0.00000  Uiso   1.00
H564   H     0.85464   0.88664   0.01270   0.00000  Uiso   1.00
H565   H     0.82399   0.92396   0.12310   0.00000  Uiso   1.00
H566   H     0.90806   0.92415   0.27473   0.00000  Uiso   1.00
H567   H     0.84342   0.89678   0.27664   0.00000  Uiso   1.00
H568   H     0.81778   0.93285   0.37598   0.00000  Uiso   1.00
H569   H     0.99431   0.95697   0.31555   0.00000  Uiso   1.00
H570   H     0.99335   0.95227   0.07279   0.00000  Uiso   1.00
H571   H     0.90974   0.92065   0.52141   0.00000  Uiso   1.00
H572   H     0.81950   0.93116   0.62062   0.00000  Uiso   1.00
H573   H     0.91274   0.91644   0.75988   0.00000  Uiso   1.00
H574   H     0.85086   0.88401   0.76079   0.00000  Uiso   1.00
H575   H     0.84459   0.89400   0.52433   0.00000  Uiso   1.00
H576   H     0.81786   0.93439   0.86842   0.00000  Uiso   1.00
C577   C     0.10833   0.07271   0.11228   0.00000  Uiso   1.00
C578   C     0.14496   0.08953   0.11233   0.00000  Uiso   1.00
C579   C     0.12137   0.05276   0.02529   0.00000  Uiso   1.00
C580   C     0.15724   0.07223   0.02506   0.00000  Uiso   1.00
C581   C     0.05935   0.03126   0.07070   0.00000  Uiso   1.00
C582   C     0.09504   0.05407   0.06859   0.00000  Uiso   1.00
C583   C     0.20250   0.11626   0.06991   0.00000  Uiso   1.00
C584   C     0.16857   0.09043   0.07047   0.00000  Uiso   1.00
C585   C     0.10591   0.07793   0.35875   0.00000  Uiso   1.00
C586   C     0.14172   0.09630   0.36129   0.00000  Uiso   1.00
C587   C     0.12548   0.05329   0.27775   0.00000  Uiso   1.00
C588   C     0.16089   0.07088   0.28070   0.00000  Uiso   1.00
C589   C     0.06071   0.03462   0.31660   0.00000  Uiso   1.00
C590   C     0.09819   0.05570   0.31704   0.00000  Uiso   1.00
C591   C     0.20448   0.11624   0.32044   0.00000  Uiso   1.00
C592   C     0.16924   0.09294   0.32166   0.00000  Uiso   1.00
C593   C     0.11044   0.07301   0.60840   0.00000  Uiso   1.00
C594   C     0.14817   0.08859   0.61182   0.00000  Uiso   1.00
C595   C     0.12627   0.05356   0.52191   0.00000  Uiso   1.00
C596   C     0.16262   0.07192   0.52641   0.00000  Uiso   1.00
C597   C     0.05971   0.03773   0.56412   0.00000  Uiso   1.00
C598   C     0.09892   0.05422   0.56475   0.00000  Uiso   1.00
C599   C     0.20376   0.11605   0.56984   0.00000  Uiso   1.00
C600   C     0.17315   0.09055   0.56997   0.00000  Uiso   1.00
C601   C     0.10355   0.07598   0.85441   0.00000  Uiso   1.00
C602   C     0.13826   0.09664   0.85807   0.00000  Uiso   1.00
C603   C     0.12393   0.05118   0.77513   0.00000  Uiso   1.00
C604   C     0.15838   0.07236   0.77846   0.00000  Uiso   1.00
C605   C     0.05818   0.03394   0.81417   0.00000  Uiso   1.00
C606   C     0.09429   0.05443   0.81383   0.00000  Uiso   1.00
C607   C     0.20210   0.11489   0.82193   0.00000  Uiso   1.00
C608   C     0.16719   0.09177   0.82089   0.00000  Uiso   1.00
C609   C     0.11223   0.26538   0.49033   0.00000  Uiso   1.00
C610   C     0.12222   0.39115   0.03116   0.00000  Uiso   1.00
C611   C     0.09724   0.38939   0.07357   0.00000  Uiso   1.00
C612   C     0.14777   0.24707   0.48726   0.00000  Uiso   1.00
C613   C     0.12799   0.22381   0.14898   0.00000  Uiso   1.00
C614   C     0.09302   0.24339   0.15299   0.00000  Uiso   1.00
C615   C     0.15741   0.23091   0.18576   0.00000  Uiso   1.00
C616   C     0.04791   0.28860   0.19639   0.00000  Uiso   1.00
C617   C     0.08356   0.26523   0.19586   0.00000  Uiso   1.00
C618   C     0.14891   0.25330   0.22860   0.00000  Uiso   1.00
C619   C     0.11151   0.26821   0.23189   0.00000  Uiso   1.00
C620   C     0.05682   0.37061   0.07286   0.00000  Uiso   1.00
C621   C     0.12694   0.38819   0.27780   0.00000  Uiso   1.00
C622   C     0.13061   0.22679   0.40257   0.00000  Uiso   1.00
C623   C     0.09610   0.24808   0.40118   0.00000  Uiso   1.00
C624   C     0.06041   0.36830   0.31553   0.00000  Uiso   1.00
C625   C     0.15702   0.22770   0.44400   0.00000  Uiso   1.00
C626   C     0.05075   0.28931   0.44563   0.00000  Uiso   1.00
C627   C     0.08518   0.26538   0.44604   0.00000  Uiso   1.00
C628   C     0.09820   0.38794   0.31738   0.00000  Uiso   1.00
C629   C     0.19403   0.20702   0.44530   0.00000  Uiso   1.00
C630   C     0.19397   0.20869   0.18575   0.00000  Uiso   1.00
C631   C     0.12210   0.38853   0.77742   0.00000  Uiso   1.00
C632   C     0.11068   0.26754   0.99179   0.00000  Uiso   1.00
C633   C     0.09507   0.38864   0.81844   0.00000  Uiso   1.00
C634   C     0.05819   0.36834   0.81695   0.00000  Uiso   1.00
C635   C     0.13024   0.22733   0.65448   0.00000  Uiso   1.00
C636   C     0.09662   0.24800   0.65489   0.00000  Uiso   1.00
C637   C     0.15521   0.22760   0.69680   0.00000  Uiso   1.00
C638   C     0.05041   0.29054   0.69968   0.00000  Uiso   1.00
C639   C     0.08411   0.26722   0.70080   0.00000  Uiso   1.00
C640   C     0.14334   0.24419   0.74256   0.00000  Uiso   1.00
C641   C     0.10831   0.26368   0.74433   0.00000  Uiso   1.00
C642   C     0.05922   0.36873   0.57180   0.00000  Uiso   1.00
C643   C     0.14526   0.24604   0.99248   0.00000  Uiso   1.00
C644   C     0.12984   0.22616   0.90467   0.00000  Uiso   1.00
C645   C     0.09749   0.24891   0.90662   0.00000  Uiso   1.00
C646   C     0.12424   0.38595   0.53049   0.00000  Uiso   1.00
C647   C     0.15617   0.22606   0.94771   0.00000  Uiso   1.00
C648   C     0.05234   0.29406   0.94622   0.00000  Uiso   1.00
C649   C     0.08851   0.27124   0.94739   0.00000  Uiso   1.00
C650   C     0.09710   0.38884   0.57181   0.00000  Uiso   1.00
C651   C     0.19319   0.20640   0.69744   0.00000  Uiso   1.00
C652   C     0.19163   0.20274   0.94794   0.00000  Uiso   1.00
C653   C     0.10307   0.59303   0.23748   0.00000  Uiso   1.00
C654   C     0.14839   0.58476   0.47964   0.00000  Uiso   1.00
C655   C     0.08540   0.59793   0.44356   0.00000  Uiso   1.00
C656   C     0.12700   0.55532   0.15088   0.00000  Uiso   1.00
C657   C     0.08951   0.57275   0.15240   0.00000  Uiso   1.00
C658   C     0.14379   0.42850   0.12005   0.00000  Uiso   1.00
C659   C     0.19065   0.53666   0.19657   0.00000  Uiso   1.00
C660   C     0.15354   0.55895   0.19177   0.00000  Uiso   1.00
C661   C     0.14099   0.57890   0.23609   0.00000  Uiso   1.00
C662   C     0.17088   0.42514   0.32698   0.00000  Uiso   1.00
C663   C     0.20352   0.45248   0.07808   0.00000  Uiso   1.00
C664   C     0.16731   0.43006   0.07735   0.00000  Uiso   1.00
C665   C     0.12745   0.55411   0.40532   0.00000  Uiso   1.00
C666   C     0.10782   0.41055   0.11686   0.00000  Uiso   1.00
C667   C     0.09237   0.57369   0.40299   0.00000  Uiso   1.00
C668   C     0.14460   0.42189   0.36906   0.00000  Uiso   1.00
C669   C     0.19310   0.53952   0.44666   0.00000  Uiso   1.00
C670   C     0.15640   0.56021   0.44303   0.00000  Uiso   1.00
C671   C     0.10815   0.40535   0.36289   0.00000  Uiso   1.00
C672   C     0.20348   0.45180   0.32672   0.00000  Uiso   1.00
C673   C     0.07702   0.58985   0.19566   0.00000  Uiso   1.00
C674   C     0.16373   0.40482   0.28446   0.00000  Uiso   1.00
C675   C     0.15745   0.41204   0.03222   0.00000  Uiso   1.00
C676   C     0.14086   0.57382   0.98538   0.00000  Uiso   1.00
C677   C     0.10951   0.40749   0.61580   0.00000  Uiso   1.00
C678   C     0.10646   0.59296   0.98702   0.00000  Uiso   1.00
C679   C     0.12897   0.55641   0.65476   0.00000  Uiso   1.00
C680   C     0.11067   0.59865   0.73916   0.00000  Uiso   1.00
C681   C     0.09399   0.57411   0.65865   0.00000  Uiso   1.00
C682   C     0.14681   0.42348   0.61836   0.00000  Uiso   1.00
C683   C     0.19524   0.54040   0.69727   0.00000  Uiso   1.00
C684   C     0.15662   0.56043   0.69624   0.00000  Uiso   1.00
C685   C     0.14702   0.57888   0.73779   0.00000  Uiso   1.00
C686   C     0.20462   0.44907   0.57478   0.00000  Uiso   1.00
C687   C     0.17239   0.42389   0.57608   0.00000  Uiso   1.00
C688   C     0.12754   0.55188   0.90218   0.00000  Uiso   1.00
C689   C     0.09228   0.57228   0.90177   0.00000  Uiso   1.00
C690   C     0.13896   0.42541   0.86548   0.00000  Uiso   1.00
C691   C     0.19335   0.53667   0.94612   0.00000  Uiso   1.00
C692   C     0.15359   0.55404   0.94428   0.00000  Uiso   1.00
C693   C     0.10358   0.40750   0.86197   0.00000  Uiso   1.00
C694   C     0.20143   0.44992   0.82597   0.00000  Uiso   1.00
C695   C     0.16642   0.42653   0.82611   0.00000  Uiso   1.00
C696   C     0.08163   0.59273   0.94527   0.00000  Uiso   1.00
C697   C     0.15838   0.40427   0.78181   0.00000  Uiso   1.00
C698   C     0.16010   0.40464   0.53355   0.00000  Uiso   1.00
C699   C     0.08559   0.59832   0.69922   0.00000  Uiso   1.00
C700   C     0.20053   0.78739   0.31983   0.00000  Uiso   1.00
C701   C     0.04218   0.61285   0.19237   0.00000  Uiso   1.00
C702   C     0.10306   0.73833   0.11051   0.00000  Uiso   1.00
C703   C     0.13892   0.75814   0.11387   0.00000  Uiso   1.00
C704   C     0.12159   0.71431   0.02850   0.00000  Uiso   1.00
C705   C     0.15675   0.73224   0.03196   0.00000  Uiso   1.00
C706   C     0.05485   0.69990   0.06617   0.00000  Uiso   1.00
C707   C     0.09289   0.71974   0.06734   0.00000  Uiso   1.00
C708   C     0.20291   0.77929   0.07053   0.00000  Uiso   1.00
C709   C     0.16545   0.75697   0.07217   0.00000  Uiso   1.00
C710   C     0.05107   0.62224   0.44259   0.00000  Uiso   1.00
C711   C     0.10242   0.74495   0.35646   0.00000  Uiso   1.00
C712   C     0.13849   0.76348   0.36133   0.00000  Uiso   1.00
C713   C     0.12281   0.71838   0.27819   0.00000  Uiso   1.00
C714   C     0.15610   0.74095   0.27985   0.00000  Uiso   1.00
C715   C     0.05783   0.69991   0.31434   0.00000  Uiso   1.00
C716   C     0.09369   0.72237   0.31518   0.00000  Uiso   1.00
C717   C     0.16683   0.76213   0.32300   0.00000  Uiso   1.00
C718   C     0.11257   0.60247   0.48319   0.00000  Uiso   1.00
C719   C     0.20033   0.78777   0.57551   0.00000  Uiso   1.00
C720   C     0.05141   0.62307   0.69548   0.00000  Uiso   1.00
C721   C     0.10049   0.74915   0.60505   0.00000  Uiso   1.00
C722   C     0.13628   0.76776   0.60935   0.00000  Uiso   1.00
C723   C     0.12524   0.71681   0.53216   0.00000  Uiso   1.00
C724   C     0.16018   0.73712   0.53517   0.00000  Uiso   1.00
C725   C     0.05711   0.70298   0.56511   0.00000  Uiso   1.00
C726   C     0.09356   0.72369   0.56611   0.00000  Uiso   1.00
C727   C     0.16628   0.76222   0.57436   0.00000  Uiso   1.00
C728   C     0.04721   0.61672   0.94328   0.00000  Uiso   1.00
C729   C     0.10668   0.73742   0.85286   0.00000  Uiso   1.00
C730   C     0.14329   0.75159   0.86032   0.00000  Uiso   1.00
C731   C     0.12088   0.71964   0.76888   0.00000  Uiso   1.00
C732   C     0.15734   0.73628   0.77322   0.00000  Uiso   1.00
C733   C     0.05941   0.69803   0.81271   0.00000  Uiso   1.00
C734   C     0.09551   0.72046   0.81128   0.00000  Uiso   1.00
C735   C     0.20140   0.77943   0.81870   0.00000  Uiso   1.00
C736   C     0.16827   0.75471   0.81712   0.00000  Uiso   1.00
C737   C     0.12859   0.89405   0.15723   0.00000  Uiso   1.00
C738   C     0.09428   0.91364   0.16137   0.00000  Uiso   1.00
C739   C     0.19555   0.87517   0.19357   0.00000  Uiso   1.00
C740   C     0.15826   0.89799   0.19404   0.00000  Uiso   1.00
C741   C     0.04954   0.95738   0.20147   0.00000  Uiso   1.00
C742   C     0.08332   0.93379   0.20540   0.00000  Uiso   1.00
C743   C     0.14885   0.91935   0.23890   0.00000  Uiso   1.00
C744   C     0.11177   0.93537   0.24599   0.00000  Uiso   1.00
C745   C     0.13070   0.89171   0.39739   0.00000  Uiso   1.00
C746   C     0.09402   0.90884   0.40059   0.00000  Uiso   1.00
C747   C     0.19329   0.87296   0.44509   0.00000  Uiso   1.00
C748   C     0.15689   0.89403   0.44113   0.00000  Uiso   1.00
C749   C     0.04754   0.95365   0.43894   0.00000  Uiso   1.00
C750   C     0.08418   0.93007   0.44025   0.00000  Uiso   1.00
C751   C     0.14477   0.91413   0.48507   0.00000  Uiso   1.00
C752   C     0.10948   0.93429   0.48272   0.00000  Uiso   1.00
C753   C     0.14910   0.91703   0.98535   0.00000  Uiso   1.00
C754   C     0.12870   0.89057   0.64945   0.00000  Uiso   1.00
C755   C     0.09196   0.90795   0.65100   0.00000  Uiso   1.00
C756   C     0.19206   0.87279   0.69152   0.00000  Uiso   1.00
C757   C     0.15517   0.89478   0.68884   0.00000  Uiso   1.00
C758   C     0.04865   0.95529   0.69097   0.00000  Uiso   1.00
C759   C     0.08334   0.93139   0.68953   0.00000  Uiso   1.00
C760   C     0.14694   0.91801   0.72769   0.00000  Uiso   1.00
C761   C     0.11033   0.93579   0.72935   0.00000  Uiso   1.00
C762   C     0.12632   0.88702   0.90758   0.00000  Uiso   1.00
C763   C     0.09140   0.90755   0.90930   0.00000  Uiso   1.00
C764   C     0.19291   0.87118   0.94550   0.00000  Uiso   1.00
C765   C     0.15585   0.89161   0.94483   0.00000  Uiso   1.00
C766   C     0.04855   0.95397   0.95035   0.00000  Uiso   1.00
C767   C     0.08414   0.93187   0.94840   0.00000  Uiso   1.00
C768   C     0.11284   0.93432   0.98876   0.00000  Uiso   1.00
C769   C     0.37592   0.11374   0.03447   0.00000  Uiso   1.00
C770   C     0.41194   0.09505   0.03537   0.00000  Uiso   1.00
C771   C     0.30919   0.12741   0.07047   0.00000  Uiso   1.00
C772   C     0.34570   0.10553   0.07069   0.00000  Uiso   1.00
C773   C     0.45157   0.04427   0.07196   0.00000  Uiso   1.00
C774   C     0.41939   0.06958   0.07308   0.00000  Uiso   1.00
C775   C     0.35265   0.07866   0.10863   0.00000  Uiso   1.00
C776   C     0.38934   0.06226   0.10915   0.00000  Uiso   1.00
C777   C     0.37396   0.11772   0.27349   0.00000  Uiso   1.00
C778   C     0.40946   0.09787   0.27879   0.00000  Uiso   1.00
C779   C     0.30835   0.13508   0.31182   0.00000  Uiso   1.00
C780   C     0.34388   0.11295   0.31021   0.00000  Uiso   1.00
C781   C     0.44974   0.05102   0.32306   0.00000  Uiso   1.00
C782   C     0.41562   0.07643   0.32041   0.00000  Uiso   1.00
C783   C     0.35154   0.09145   0.35382   0.00000  Uiso   1.00
C784   C     0.38658   0.07473   0.35876   0.00000  Uiso   1.00
C785   C     0.36978   0.11156   0.52987   0.00000  Uiso   1.00
C786   C     0.40594   0.09359   0.53291   0.00000  Uiso   1.00
C787   C     0.30603   0.12961   0.57115   0.00000  Uiso   1.00
C788   C     0.34335   0.11194   0.57093   0.00000  Uiso   1.00
C789   C     0.45253   0.05057   0.57438   0.00000  Uiso   1.00
C790   C     0.41765   0.07454   0.57573   0.00000  Uiso   1.00
C791   C     0.35587   0.09368   0.61484   0.00000  Uiso   1.00
C792   C     0.39144   0.07683   0.61683   0.00000  Uiso   1.00
C793   C     0.37691   0.11505   0.77808   0.00000  Uiso   1.00
C794   C     0.41126   0.09500   0.78084   0.00000  Uiso   1.00
C795   C     0.31017   0.13094   0.81679   0.00000  Uiso   1.00
C796   C     0.34889   0.11097   0.81883   0.00000  Uiso   1.00
C797   C     0.45680   0.05134   0.82088   0.00000  Uiso   1.00
C798   C     0.42240   0.07483   0.82297   0.00000  Uiso   1.00
C799   C     0.35890   0.09015   0.86140   0.00000  Uiso   1.00
C800   C     0.39504   0.07289   0.86434   0.00000  Uiso   1.00
C801   C     0.39615   0.25058   0.23034   0.00000  Uiso   1.00
C802   C     0.35836   0.23434   0.23498   0.00000  Uiso   1.00
C803   C     0.37561   0.28058   0.15408   0.00000  Uiso   1.00
C804   C     0.33868   0.26340   0.15750   0.00000  Uiso   1.00
C805   C     0.44052   0.29408   0.19002   0.00000  Uiso   1.00
C806   C     0.40545   0.27268   0.18873   0.00000  Uiso   1.00
C807   C     0.35667   0.23932   0.48449   0.00000  Uiso   1.00
C808   C     0.33051   0.23836   0.19723   0.00000  Uiso   1.00
C809   C     0.45147   0.38077   0.06488   0.00000  Uiso   1.00
C810   C     0.37638   0.28213   0.39992   0.00000  Uiso   1.00
C811   C     0.34260   0.25968   0.40138   0.00000  Uiso   1.00
C812   C     0.43915   0.30066   0.44519   0.00000  Uiso   1.00
C813   C     0.40196   0.28142   0.44291   0.00000  Uiso   1.00
C814   C     0.29866   0.21079   0.44123   0.00000  Uiso   1.00
C815   C     0.33203   0.23696   0.44116   0.00000  Uiso   1.00
C816   C     0.45218   0.38373   0.32171   0.00000  Uiso   1.00
C817   C     0.29708   0.21292   0.19444   0.00000  Uiso   1.00
C818   C     0.39357   0.25719   0.48313   0.00000  Uiso   1.00
C819   C     0.39525   0.25148   0.73508   0.00000  Uiso   1.00
C820   C     0.35791   0.23632   0.74094   0.00000  Uiso   1.00
C821   C     0.37538   0.27740   0.65366   0.00000  Uiso   1.00
C822   C     0.33858   0.26001   0.66018   0.00000  Uiso   1.00
C823   C     0.44110   0.29519   0.69295   0.00000  Uiso   1.00
C824   C     0.40342   0.27518   0.69349   0.00000  Uiso   1.00
C825   C     0.29813   0.21149   0.70191   0.00000  Uiso   1.00
C826   C     0.33160   0.23691   0.70137   0.00000  Uiso   1.00
C827   C     0.44924   0.37774   0.56782   0.00000  Uiso   1.00
C828   C     0.39696   0.24882   0.98360   0.00000  Uiso   1.00
C829   C     0.38141   0.26819   0.89670   0.00000  Uiso   1.00
C830   C     0.34554   0.25058   0.90000   0.00000  Uiso   1.00
C831   C     0.44336   0.29204   0.94105   0.00000  Uiso   1.00
C832   C     0.40832   0.26813   0.93962   0.00000  Uiso   1.00
C833   C     0.30047   0.20530   0.93971   0.00000  Uiso   1.00
C834   C     0.33642   0.22880   0.94018   0.00000  Uiso   1.00
C835   C     0.45107   0.37590   0.82052   0.00000  Uiso   1.00
C836   C     0.36156   0.22957   0.98265   0.00000  Uiso   1.00
C837   C     0.38735   0.39606   0.86148   0.00000  Uiso   1.00
C838   C     0.41516   0.39997   0.82167   0.00000  Uiso   1.00
C839   C     0.38969   0.59191   0.24015   0.00000  Uiso   1.00
C840   C     0.30022   0.54649   0.45078   0.00000  Uiso   1.00
C841   C     0.35849   0.43086   0.36384   0.00000  Uiso   1.00
C842   C     0.36913   0.44369   0.02625   0.00000  Uiso   1.00
C843   C     0.38869   0.59525   0.49554   0.00000  Uiso   1.00
C844   C     0.40550   0.42617   0.02656   0.00000  Uiso   1.00
C845   C     0.35310   0.57625   0.24256   0.00000  Uiso   1.00
C846   C     0.30722   0.46369   0.07485   0.00000  Uiso   1.00
C847   C     0.34464   0.44196   0.07061   0.00000  Uiso   1.00
C848   C     0.35724   0.42202   0.11411   0.00000  Uiso   1.00
C849   C     0.33931   0.59375   0.15682   0.00000  Uiso   1.00
C850   C     0.29322   0.55154   0.20194   0.00000  Uiso   1.00
C851   C     0.32765   0.57635   0.20203   0.00000  Uiso   1.00
C852   C     0.38062   0.45572   0.28107   0.00000  Uiso   1.00
C853   C     0.39309   0.40291   0.11091   0.00000  Uiso   1.00
C854   C     0.41283   0.43172   0.28183   0.00000  Uiso   1.00
C855   C     0.39157   0.40985   0.36410   0.00000  Uiso   1.00
C856   C     0.31500   0.47291   0.31852   0.00000  Uiso   1.00
C857   C     0.35279   0.45254   0.32053   0.00000  Uiso   1.00
C858   C     0.33072   0.57310   0.45450   0.00000  Uiso   1.00
C859   C     0.35473   0.57702   0.49671   0.00000  Uiso   1.00
C860   C     0.41851   0.40850   0.32298   0.00000  Uiso   1.00
C861   C     0.34151   0.59195   0.41011   0.00000  Uiso   1.00
C862   C     0.41712   0.40483   0.06751   0.00000  Uiso   1.00
C863   C     0.35134   0.41298   0.85837   0.00000  Uiso   1.00
C864   C     0.36492   0.56329   0.98677   0.00000  Uiso   1.00
C865   C     0.40005   0.59051   0.74265   0.00000  Uiso   1.00
C866   C     0.34400   0.58702   0.90652   0.00000  Uiso   1.00
C867   C     0.33625   0.56448   0.94755   0.00000  Uiso   1.00
C868   C     0.36875   0.44399   0.52990   0.00000  Uiso   1.00
C869   C     0.40137   0.42183   0.52731   0.00000  Uiso   1.00
C870   C     0.36484   0.56989   0.74592   0.00000  Uiso   1.00
C871   C     0.30659   0.46183   0.57483   0.00000  Uiso   1.00
C872   C     0.34353   0.44305   0.57291   0.00000  Uiso   1.00
C873   C     0.35536   0.42172   0.61453   0.00000  Uiso   1.00
C874   C     0.30104   0.54267   0.94709   0.00000  Uiso   1.00
C875   C     0.30616   0.54175   0.70203   0.00000  Uiso   1.00
C876   C     0.34017   0.56721   0.70343   0.00000  Uiso   1.00
C877   C     0.37059   0.44220   0.78124   0.00000  Uiso   1.00
C878   C     0.40643   0.42372   0.78227   0.00000  Uiso   1.00
C879   C     0.39957   0.58514   0.98730   0.00000  Uiso   1.00
C880   C     0.30677   0.45774   0.82202   0.00000  Uiso   1.00
C881   C     0.34219   0.43609   0.81859   0.00000  Uiso   1.00
C882   C     0.41475   0.40224   0.56891   0.00000  Uiso   1.00
C883   C     0.35058   0.58571   0.65933   0.00000  Uiso   1.00
C884   C     0.39283   0.40436   0.61395   0.00000  Uiso   1.00
C885   C     0.39952   0.61202   0.19710   0.00000  Uiso   1.00
C886   C     0.43732   0.62993   0.19769   0.00000  Uiso   1.00
C887   C     0.40057   0.61419   0.45195   0.00000  Uiso   1.00
C888   C     0.37233   0.77646   0.02939   0.00000  Uiso   1.00
C889   C     0.40662   0.75728   0.03320   0.00000  Uiso   1.00
C890   C     0.34628   0.77500   0.07031   0.00000  Uiso   1.00
C891   C     0.45369   0.71462   0.07496   0.00000  Uiso   1.00
C892   C     0.41821   0.73946   0.07628   0.00000  Uiso   1.00
C893   C     0.35754   0.75684   0.11641   0.00000  Uiso   1.00
C894   C     0.39194   0.73756   0.11779   0.00000  Uiso   1.00
C895   C     0.43964   0.63259   0.44873   0.00000  Uiso   1.00
C896   C     0.37137   0.77486   0.28071   0.00000  Uiso   1.00
C897   C     0.40858   0.75821   0.28549   0.00000  Uiso   1.00
C898   C     0.37371   0.61554   0.41181   0.00000  Uiso   1.00
C899   C     0.34658   0.77497   0.32087   0.00000  Uiso   1.00
C900   C     0.45506   0.71638   0.33087   0.00000  Uiso   1.00
C901   C     0.41892   0.73959   0.32958   0.00000  Uiso   1.00
C902   C     0.35736   0.75909   0.36702   0.00000  Uiso   1.00
C903   C     0.39448   0.74214   0.37059   0.00000  Uiso   1.00
C904   C     0.37517   0.61201   0.15373   0.00000  Uiso   1.00
C905   C     0.30755   0.79376   0.06933   0.00000  Uiso   1.00
C906   C     0.30713   0.79542   0.32058   0.00000  Uiso   1.00
C907   C     0.38200   0.60951   0.66002   0.00000  Uiso   1.00
C908   C     0.40843   0.61140   0.70010   0.00000  Uiso   1.00
C909   C     0.37832   0.60989   0.90542   0.00000  Uiso   1.00
C910   C     0.44437   0.63295   0.70006   0.00000  Uiso   1.00
C911   C     0.37382   0.78238   0.52751   0.00000  Uiso   1.00
C912   C     0.40889   0.76261   0.52911   0.00000  Uiso   1.00
C913   C     0.34520   0.78101   0.56568   0.00000  Uiso   1.00
C914   C     0.45206   0.71630   0.56923   0.00000  Uiso   1.00
C915   C     0.41822   0.74088   0.57101   0.00000  Uiso   1.00
C916   C     0.35494   0.75666   0.60661   0.00000  Uiso   1.00
C917   C     0.39264   0.74185   0.61303   0.00000  Uiso   1.00
C918   C     0.43977   0.63415   0.95016   0.00000  Uiso   1.00
C919   C     0.37390   0.78099   0.77769   0.00000  Uiso   1.00
C920   C     0.40981   0.76305   0.78069   0.00000  Uiso   1.00
C921   C     0.34634   0.77847   0.81693   0.00000  Uiso   1.00
C922   C     0.45231   0.71877   0.82155   0.00000  Uiso   1.00
C923   C     0.41969   0.74410   0.82210   0.00000  Uiso   1.00
C924   C     0.35536   0.75717   0.85885   0.00000  Uiso   1.00
C925   C     0.39277   0.74193   0.86339   0.00000  Uiso   1.00
C926   C     0.40538   0.60955   0.94710   0.00000  Uiso   1.00
C927   C     0.30695   0.79632   0.81741   0.00000  Uiso   1.00
C928   C     0.36144   0.90112   0.48969   0.00000  Uiso   1.00
C929   C     0.39740   0.91808   0.48703   0.00000  Uiso   1.00
C930   C     0.39277   0.92387   0.24312   0.00000  Uiso   1.00
C931   C     0.35967   0.90065   0.24076   0.00000  Uiso   1.00
C932   C     0.37815   0.94137   0.15293   0.00000  Uiso   1.00
C933   C     0.34644   0.91758   0.15413   0.00000  Uiso   1.00
C934   C     0.44233   0.96079   0.19675   0.00000  Uiso   1.00
C935   C     0.40325   0.94292   0.19659   0.00000  Uiso   1.00
C936   C     0.30215   0.87360   0.19766   0.00000  Uiso   1.00
C937   C     0.33724   0.89664   0.19810   0.00000  Uiso   1.00
C938   C     0.37683   0.94962   0.41004   0.00000  Uiso   1.00
C939   C     0.34206   0.92781   0.40895   0.00000  Uiso   1.00
C940   C     0.44242   0.96316   0.44807   0.00000  Uiso   1.00
C941   C     0.40411   0.94397   0.44895   0.00000  Uiso   1.00
C942   C     0.29969   0.87846   0.44531   0.00000  Uiso   1.00
C943   C     0.33336   0.90381   0.44909   0.00000  Uiso   1.00
C944   C     0.39243   0.91463   0.97763   0.00000  Uiso   1.00
C945   C     0.39027   0.92413   0.74383   0.00000  Uiso   1.00
C946   C     0.35468   0.90484   0.74499   0.00000  Uiso   1.00
C947   C     0.37651   0.93814   0.65574   0.00000  Uiso   1.00
C948   C     0.34166   0.91687   0.65764   0.00000  Uiso   1.00
C949   C     0.43844   0.96216   0.69513   0.00000  Uiso   1.00
C950   C     0.40222   0.94129   0.69894   0.00000  Uiso   1.00
C951   C     0.29723   0.87671   0.70385   0.00000  Uiso   1.00
C952   C     0.32979   0.90192   0.70260   0.00000  Uiso   1.00
C953   C     0.37573   0.94069   0.89664   0.00000  Uiso   1.00
C954   C     0.34099   0.91830   0.89566   0.00000  Uiso   1.00
C955   C     0.44258   0.95889   0.93746   0.00000  Uiso   1.00
C956   C     0.40308   0.93850   0.93750   0.00000  Uiso   1.00
C957   C     0.29862   0.87330   0.94047   0.00000  Uiso   1.00
C958   C     0.33317   0.89714   0.94150   0.00000  Uiso   1.00
C959   C     0.35732   0.89717   0.98287   0.00000  Uiso   1.00
C960   C     0.30913   0.80169   0.56601   0.00000  Uiso   1.00
C961   C     0.61226   0.06973   0.10720   0.00000  Uiso   1.00
C962   C     0.64771   0.08799   0.10696   0.00000  Uiso   1.00
C963   C     0.61872   0.05520   0.01704   0.00000  Uiso   1.00
C964   C     0.65432   0.07551   0.01739   0.00000  Uiso   1.00
C965   C     0.55846   0.03411   0.06631   0.00000  Uiso   1.00
C966   C     0.59822   0.05182   0.06294   0.00000  Uiso   1.00
C967   C     0.70371   0.11466   0.06080   0.00000  Uiso   1.00
C968   C     0.66983   0.09144   0.06289   0.00000  Uiso   1.00
C969   C     0.60780   0.07700   0.36360   0.00000  Uiso   1.00
C970   C     0.64106   0.09610   0.36320   0.00000  Uiso   1.00
C971   C     0.61991   0.05683   0.27743   0.00000  Uiso   1.00
C972   C     0.65585   0.07544   0.27673   0.00000  Uiso   1.00
C973   C     0.55759   0.03611   0.32070   0.00000  Uiso   1.00
C974   C     0.59515   0.05741   0.31983   0.00000  Uiso   1.00
C975   C     0.70117   0.12084   0.32005   0.00000  Uiso   1.00
C976   C     0.66557   0.09722   0.31920   0.00000  Uiso   1.00
C977   C     0.60933   0.07502   0.61342   0.00000  Uiso   1.00
C978   C     0.64258   0.09799   0.61422   0.00000  Uiso   1.00
C979   C     0.62231   0.05689   0.52860   0.00000  Uiso   1.00
C980   C     0.65640   0.07789   0.52850   0.00000  Uiso   1.00
C981   C     0.56026   0.03561   0.57305   0.00000  Uiso   1.00
C982   C     0.59684   0.05600   0.57083   0.00000  Uiso   1.00
C983   C     0.70185   0.12304   0.57031   0.00000  Uiso   1.00
C984   C     0.66719   0.09890   0.57242   0.00000  Uiso   1.00
C985   C     0.60471   0.08109   0.85677   0.00000  Uiso   1.00
C986   C     0.64205   0.09824   0.86101   0.00000  Uiso   1.00
C987   C     0.62672   0.05322   0.77887   0.00000  Uiso   1.00
C988   C     0.66148   0.07399   0.78079   0.00000  Uiso   1.00
C989   C     0.56040   0.03629   0.81543   0.00000  Uiso   1.00
C990   C     0.59681   0.05626   0.81581   0.00000  Uiso   1.00
C991   C     0.70342   0.11942   0.82130   0.00000  Uiso   1.00
C992   C     0.66956   0.09585   0.82203   0.00000  Uiso   1.00
C993   C     0.68895   0.19954   0.69161   0.00000  Uiso   1.00
C994   C     0.56076   0.36512   0.31443   0.00000  Uiso   1.00
C995   C     0.59078   0.39132   0.06756   0.00000  Uiso   1.00
C996   C     0.69249   0.20843   0.18462   0.00000  Uiso   1.00
C997   C     0.61951   0.38866   0.02900   0.00000  Uiso   1.00
C998   C     0.62648   0.22621   0.14561   0.00000  Uiso   1.00
C999   C     0.59046   0.24407   0.15155   0.00000  Uiso   1.00
C1000  C     0.64089   0.24368   0.48360   0.00000  Uiso   1.00
C1001  C     0.65512   0.23063   0.18412   0.00000  Uiso   1.00
C1002  C     0.54817   0.28993   0.19449   0.00000  Uiso   1.00
C1003  C     0.58353   0.26629   0.19463   0.00000  Uiso   1.00
C1004  C     0.64688   0.25074   0.22710   0.00000  Uiso   1.00
C1005  C     0.60974   0.26551   0.23553   0.00000  Uiso   1.00
C1006  C     0.55483   0.37139   0.06565   0.00000  Uiso   1.00
C1007  C     0.60606   0.26418   0.48258   0.00000  Uiso   1.00
C1008  C     0.62667   0.22134   0.39923   0.00000  Uiso   1.00
C1009  C     0.58961   0.23968   0.39930   0.00000  Uiso   1.00
C1010  C     0.65191   0.22283   0.44120   0.00000  Uiso   1.00
C1011  C     0.54339   0.28439   0.43908   0.00000  Uiso   1.00
C1012  C     0.57983   0.26104   0.44143   0.00000  Uiso   1.00
C1013  C     0.59820   0.38678   0.31154   0.00000  Uiso   1.00
C1014  C     0.62561   0.38439   0.27214   0.00000  Uiso   1.00
C1015  C     0.69090   0.20574   0.44099   0.00000  Uiso   1.00
C1016  C     0.61977   0.39062   0.52789   0.00000  Uiso   1.00
C1017  C     0.64723   0.24511   0.98633   0.00000  Uiso   1.00
C1018  C     0.61013   0.26095   0.99119   0.00000  Uiso   1.00
C1019  C     0.55840   0.36703   0.81733   0.00000  Uiso   1.00
C1020  C     0.62521   0.21685   0.65410   0.00000  Uiso   1.00
C1021  C     0.58818   0.23339   0.65745   0.00000  Uiso   1.00
C1022  C     0.65138   0.21772   0.69530   0.00000  Uiso   1.00
C1023  C     0.54665   0.28212   0.69492   0.00000  Uiso   1.00
C1024  C     0.58006   0.25666   0.69747   0.00000  Uiso   1.00
C1025  C     0.64061   0.24031   0.73723   0.00000  Uiso   1.00
C1026  C     0.60609   0.25745   0.73749   0.00000  Uiso   1.00
C1027  C     0.55647   0.36959   0.56902   0.00000  Uiso   1.00
C1028  C     0.59279   0.38924   0.81471   0.00000  Uiso   1.00
C1029  C     0.62913   0.22032   0.90583   0.00000  Uiso   1.00
C1030  C     0.59473   0.24017   0.90507   0.00000  Uiso   1.00
C1031  C     0.61969   0.38884   0.77374   0.00000  Uiso   1.00
C1032  C     0.65560   0.22316   0.94389   0.00000  Uiso   1.00
C1033  C     0.54974   0.28595   0.94817   0.00000  Uiso   1.00
C1034  C     0.58498   0.26140   0.94788   0.00000  Uiso   1.00
C1035  C     0.59354   0.39026   0.56860   0.00000  Uiso   1.00
C1036  C     0.69384   0.20361   0.94180   0.00000  Uiso   1.00
C1037  C     0.64001   0.57141   0.48834   0.00000  Uiso   1.00
C1038  C     0.60255   0.41076   0.11006   0.00000  Uiso   1.00
C1039  C     0.62604   0.55430   0.15436   0.00000  Uiso   1.00
C1040  C     0.57842   0.58852   0.45264   0.00000  Uiso   1.00
C1041  C     0.59083   0.57437   0.15734   0.00000  Uiso   1.00
C1042  C     0.63983   0.42678   0.11515   0.00000  Uiso   1.00
C1043  C     0.69050   0.53770   0.19239   0.00000  Uiso   1.00
C1044  C     0.65310   0.55774   0.19496   0.00000  Uiso   1.00
C1045  C     0.64460   0.58008   0.23625   0.00000  Uiso   1.00
C1046  C     0.70041   0.45123   0.06869   0.00000  Uiso   1.00
C1047  C     0.66444   0.42732   0.07140   0.00000  Uiso   1.00
C1048  C     0.62402   0.55090   0.40386   0.00000  Uiso   1.00
C1049  C     0.60259   0.58694   0.49316   0.00000  Uiso   1.00
C1050  C     0.58910   0.57071   0.40652   0.00000  Uiso   1.00
C1051  C     0.64419   0.42606   0.35663   0.00000  Uiso   1.00
C1052  C     0.68849   0.53533   0.44381   0.00000  Uiso   1.00
C1053  C     0.65053   0.55130   0.44534   0.00000  Uiso   1.00
C1054  C     0.70572   0.44673   0.31397   0.00000  Uiso   1.00
C1055  C     0.67084   0.42385   0.31559   0.00000  Uiso   1.00
C1056  C     0.65343   0.40871   0.02895   0.00000  Uiso   1.00
C1057  C     0.66287   0.40175   0.27650   0.00000  Uiso   1.00
C1058  C     0.58035   0.59224   0.20265   0.00000  Uiso   1.00
C1059  C     0.60802   0.59622   0.24319   0.00000  Uiso   1.00
C1060  C     0.60847   0.40832   0.35436   0.00000  Uiso   1.00
C1061  C     0.63785   0.57358   0.98523   0.00000  Uiso   1.00
C1062  C     0.60134   0.41144   0.85648   0.00000  Uiso   1.00
C1063  C     0.58112   0.59868   0.94727   0.00000  Uiso   1.00
C1064  C     0.62513   0.55694   0.65118   0.00000  Uiso   1.00
C1065  C     0.59223   0.57908   0.65399   0.00000  Uiso   1.00
C1066  C     0.63716   0.43110   0.61319   0.00000  Uiso   1.00
C1067  C     0.68976   0.53736   0.68820   0.00000  Uiso   1.00
C1068  C     0.65314   0.56025   0.68751   0.00000  Uiso   1.00
C1069  C     0.64662   0.58183   0.73239   0.00000  Uiso   1.00
C1070  C     0.69724   0.45476   0.57325   0.00000  Uiso   1.00
C1071  C     0.66473   0.42889   0.57305   0.00000  Uiso   1.00
C1072  C     0.62509   0.55703   0.90025   0.00000  Uiso   1.00
C1073  C     0.66252   0.42905   0.81681   0.00000  Uiso   1.00
C1074  C     0.59044   0.57875   0.90249   0.00000  Uiso   1.00
C1075  C     0.63614   0.43052   0.85691   0.00000  Uiso   1.00
C1076  C     0.68820   0.53778   0.93729   0.00000  Uiso   1.00
C1077  C     0.64978   0.55526   0.94146   0.00000  Uiso   1.00
C1078  C     0.65293   0.40919   0.77156   0.00000  Uiso   1.00
C1079  C     0.69699   0.45303   0.81761   0.00000  Uiso   1.00
C1080  C     0.65390   0.41101   0.52956   0.00000  Uiso   1.00
C1081  C     0.60147   0.41223   0.61049   0.00000  Uiso   1.00
C1082  C     0.58287   0.59805   0.69865   0.00000  Uiso   1.00
C1083  C     0.60488   0.59417   0.98942   0.00000  Uiso   1.00
C1084  C     0.54445   0.61554   0.20283   0.00000  Uiso   1.00
C1085  C     0.60376   0.74833   0.11134   0.00000  Uiso   1.00
C1086  C     0.63618   0.77133   0.11001   0.00000  Uiso   1.00
C1087  C     0.62597   0.71858   0.03441   0.00000  Uiso   1.00
C1088  C     0.65914   0.74149   0.03576   0.00000  Uiso   1.00
C1089  C     0.56149   0.69972   0.07469   0.00000  Uiso   1.00
C1090  C     0.59713   0.72185   0.07383   0.00000  Uiso   1.00
C1091  C     0.69718   0.79263   0.06770   0.00000  Uiso   1.00
C1092  C     0.66456   0.76736   0.07208   0.00000  Uiso   1.00
C1093  C     0.54356   0.61410   0.45221   0.00000  Uiso   1.00
C1094  C     0.60454   0.74719   0.36237   0.00000  Uiso   1.00
C1095  C     0.63868   0.76736   0.36176   0.00000  Uiso   1.00
C1096  C     0.62180   0.72101   0.28148   0.00000  Uiso   1.00
C1097  C     0.65709   0.74068   0.28240   0.00000  Uiso   1.00
C1098  C     0.56091   0.70073   0.32367   0.00000  Uiso   1.00
C1099  C     0.59630   0.72186   0.32315   0.00000  Uiso   1.00
C1100  C     0.70048   0.78756   0.31996   0.00000  Uiso   1.00
C1101  C     0.66699   0.76291   0.32339   0.00000  Uiso   1.00
C1102  C     0.54973   0.62330   0.69831   0.00000  Uiso   1.00
C1103  C     0.60453   0.74716   0.60933   0.00000  Uiso   1.00
C1104  C     0.63951   0.76730   0.61137   0.00000  Uiso   1.00
C1105  C     0.62495   0.71900   0.53211   0.00000  Uiso   1.00
C1106  C     0.65705   0.74099   0.53162   0.00000  Uiso   1.00
C1107  C     0.55864   0.70446   0.56953   0.00000  Uiso   1.00
C1108  C     0.59639   0.72441   0.56755   0.00000  Uiso   1.00
C1109  C     0.69989   0.78615   0.56932   0.00000  Uiso   1.00
C1110  C     0.66573   0.76341   0.57130   0.00000  Uiso   1.00
C1111  C     0.54664   0.62140   0.94629   0.00000  Uiso   1.00
C1112  C     0.61087   0.74358   0.86175   0.00000  Uiso   1.00
C1113  C     0.64686   0.76098   0.86552   0.00000  Uiso   1.00
C1114  C     0.62656   0.72198   0.77871   0.00000  Uiso   1.00
C1115  C     0.66297   0.73931   0.78174   0.00000  Uiso   1.00
C1116  C     0.56206   0.70352   0.82291   0.00000  Uiso   1.00
C1117  C     0.60021   0.72336   0.82079   0.00000  Uiso   1.00
C1118  C     0.70409   0.78717   0.82218   0.00000  Uiso   1.00
C1119  C     0.67085   0.76209   0.82326   0.00000  Uiso   1.00
C1120  C     0.61213   0.60116   0.73690   0.00000  Uiso   1.00
C1121  C     0.62854   0.89035   0.15371   0.00000  Uiso   1.00
C1122  C     0.59362   0.90970   0.15743   0.00000  Uiso   1.00
C1123  C     0.69264   0.87195   0.19283   0.00000  Uiso   1.00
C1124  C     0.65483   0.89332   0.19274   0.00000  Uiso   1.00
C1125  C     0.54765   0.95311   0.20057   0.00000  Uiso   1.00
C1126  C     0.58151   0.92671   0.20224   0.00000  Uiso   1.00
C1127  C     0.64349   0.90998   0.23863   0.00000  Uiso   1.00
C1128  C     0.60885   0.92823   0.24203   0.00000  Uiso   1.00
C1129  C     0.62868   0.89027   0.40481   0.00000  Uiso   1.00
C1130  C     0.59784   0.91364   0.40365   0.00000  Uiso   1.00
C1131  C     0.68848   0.86390   0.44800   0.00000  Uiso   1.00
C1132  C     0.65179   0.88655   0.44733   0.00000  Uiso   1.00
C1133  C     0.55040   0.95534   0.44933   0.00000  Uiso   1.00
C1134  C     0.58580   0.93183   0.44845   0.00000  Uiso   1.00
C1135  C     0.64277   0.90632   0.49147   0.00000  Uiso   1.00
C1136  C     0.60836   0.92693   0.49282   0.00000  Uiso   1.00
C1137  C     0.64974   0.91282   0.98532   0.00000  Uiso   1.00
C1138  C     0.61343   0.92918   0.98844   0.00000  Uiso   1.00
C1139  C     0.62398   0.88297   0.65326   0.00000  Uiso   1.00
C1140  C     0.58976   0.90200   0.65699   0.00000  Uiso   1.00
C1141  C     0.68890   0.86475   0.69187   0.00000  Uiso   1.00
C1142  C     0.65051   0.88245   0.69250   0.00000  Uiso   1.00
C1143  C     0.55198   0.95281   0.69593   0.00000  Uiso   1.00
C1144  C     0.58283   0.92419   0.69793   0.00000  Uiso   1.00
C1145  C     0.64254   0.90200   0.73724   0.00000  Uiso   1.00
C1146  C     0.60734   0.92235   0.74051   0.00000  Uiso   1.00
C1147  C     0.62660   0.88560   0.90503   0.00000  Uiso   1.00
C1148  C     0.59340   0.90688   0.90644   0.00000  Uiso   1.00
C1149  C     0.69258   0.86744   0.94185   0.00000  Uiso   1.00
C1150  C     0.65645   0.88922   0.94476   0.00000  Uiso   1.00
C1151  C     0.55144   0.95306   0.94771   0.00000  Uiso   1.00
C1152  C     0.58580   0.92847   0.94930   0.00000  Uiso   1.00
C1153  C     0.87111   0.10969   0.02713   0.00000  Uiso   1.00
C1154  C     0.90513   0.08943   0.02669   0.00000  Uiso   1.00
C1155  C     0.80794   0.12647   0.07083   0.00000  Uiso   1.00
C1156  C     0.84713   0.10948   0.07197   0.00000  Uiso   1.00
C1157  C     0.95236   0.04758   0.06933   0.00000  Uiso   1.00
C1158  C     0.91663   0.06993   0.07132   0.00000  Uiso   1.00
C1159  C     0.86104   0.09292   0.11717   0.00000  Uiso   1.00
C1160  C     0.89678   0.07586   0.11641   0.00000  Uiso   1.00
C1161  C     0.87271   0.11815   0.27578   0.00000  Uiso   1.00
C1162  C     0.90704   0.09702   0.27883   0.00000  Uiso   1.00
C1163  C     0.81028   0.13838   0.31591   0.00000  Uiso   1.00
C1164  C     0.84604   0.11599   0.31802   0.00000  Uiso   1.00
C1165  C     0.94871   0.04985   0.32093   0.00000  Uiso   1.00
C1166  C     0.91627   0.07600   0.32158   0.00000  Uiso   1.00
C1167  C     0.85378   0.09339   0.35887   0.00000  Uiso   1.00
C1168  C     0.88920   0.07381   0.36116   0.00000  Uiso   1.00
C1169  C     0.87579   0.11917   0.52130   0.00000  Uiso   1.00
C1170  C     0.91057   0.09933   0.52345   0.00000  Uiso   1.00
C1171  C     0.80980   0.13441   0.56217   0.00000  Uiso   1.00
C1172  C     0.84841   0.11607   0.56305   0.00000  Uiso   1.00
C1173  C     0.95605   0.05390   0.56637   0.00000  Uiso   1.00
C1174  C     0.92255   0.07973   0.56656   0.00000  Uiso   1.00
C1175  C     0.86287   0.09904   0.60852   0.00000  Uiso   1.00
C1176  C     0.89917   0.08311   0.61038   0.00000  Uiso   1.00
C1177  C     0.87676   0.11262   0.77762   0.00000  Uiso   1.00
C1178  C     0.91437   0.09608   0.78371   0.00000  Uiso   1.00
C1179  C     0.81158   0.12929   0.81429   0.00000  Uiso   1.00
C1180  C     0.84766   0.10863   0.81573   0.00000  Uiso   1.00
C1181  C     0.95458   0.04967   0.82467   0.00000  Uiso   1.00
C1182  C     0.92085   0.07482   0.82441   0.00000  Uiso   1.00
C1183  C     0.85504   0.08697   0.85789   0.00000  Uiso   1.00
C1184  C     0.89087   0.07016   0.86109   0.00000  Uiso   1.00
C1185  C     0.79893   0.21794   0.44090   0.00000  Uiso   1.00
C1186  C     0.79559   0.21442   0.18734   0.00000  Uiso   1.00
C1187  C     0.85803   0.23844   0.48390   0.00000  Uiso   1.00
C1188  C     0.88863   0.25496   0.23487   0.00000  Uiso   1.00
C1189  C     0.85607   0.23360   0.23187   0.00000  Uiso   1.00
C1190  C     0.87789   0.27631   0.15059   0.00000  Uiso   1.00
C1191  C     0.84161   0.25882   0.14896   0.00000  Uiso   1.00
C1192  C     0.94042   0.29419   0.19529   0.00000  Uiso   1.00
C1193  C     0.90300   0.27334   0.19415   0.00000  Uiso   1.00
C1194  C     0.83048   0.23657   0.19028   0.00000  Uiso   1.00
C1195  C     0.95254   0.38389   0.07326   0.00000  Uiso   1.00
C1196  C     0.87679   0.28501   0.40444   0.00000  Uiso   1.00
C1197  C     0.84206   0.26597   0.40413   0.00000  Uiso   1.00
C1198  C     0.94223   0.29605   0.44321   0.00000  Uiso   1.00
C1199  C     0.90383   0.27867   0.44328   0.00000  Uiso   1.00
C1200  C     0.83362   0.24144   0.44249   0.00000  Uiso   1.00
C1201  C     0.95736   0.38764   0.32345   0.00000  Uiso   1.00
C1202  C     0.89187   0.25844   0.48604   0.00000  Uiso   1.00
C1203  C     0.86275   0.23333   0.99100   0.00000  Uiso   1.00
C1204  C     0.89997   0.25071   0.98840   0.00000  Uiso   1.00
C1205  C     0.89531   0.25379   0.73318   0.00000  Uiso   1.00
C1206  C     0.85753   0.23785   0.73517   0.00000  Uiso   1.00
C1207  C     0.87722   0.28124   0.65138   0.00000  Uiso   1.00
C1208  C     0.84223   0.26301   0.65299   0.00000  Uiso   1.00
C1209  C     0.94519   0.29373   0.69132   0.00000  Uiso   1.00
C1210  C     0.90537   0.27528   0.69115   0.00000  Uiso   1.00
C1211  C     0.79620   0.21659   0.69338   0.00000  Uiso   1.00
C1212  C     0.83150   0.23961   0.69416   0.00000  Uiso   1.00
C1213  C     0.95431   0.38183   0.57141   0.00000  Uiso   1.00
C1214  C     0.88005   0.27876   0.90962   0.00000  Uiso   1.00
C1215  C     0.84498   0.25825   0.90789   0.00000  Uiso   1.00
C1216  C     0.94640   0.29401   0.94744   0.00000  Uiso   1.00
C1217  C     0.90744   0.27572   0.94877   0.00000  Uiso   1.00
C1218  C     0.80036   0.21118   0.94752   0.00000  Uiso   1.00
C1219  C     0.83579   0.23525   0.94921   0.00000  Uiso   1.00
C1220  C     0.95002   0.38428   0.82453   0.00000  Uiso   1.00
C1221  C     0.91645   0.40698   0.07196   0.00000  Uiso   1.00
C1222  C     0.86224   0.42734   0.36517   0.00000  Uiso   1.00
C1223  C     0.84040   0.59141   0.15230   0.00000  Uiso   1.00
C1224  C     0.83575   0.56786   0.44529   0.00000  Uiso   1.00
C1225  C     0.80085   0.54367   0.44372   0.00000  Uiso   1.00
C1226  C     0.87133   0.44592   0.02748   0.00000  Uiso   1.00
C1227  C     0.89907   0.41284   0.36745   0.00000  Uiso   1.00
C1228  C     0.90644   0.42580   0.02698   0.00000  Uiso   1.00
C1229  C     0.85702   0.56914   0.23528   0.00000  Uiso   1.00
C1230  C     0.80683   0.46585   0.06655   0.00000  Uiso   1.00
C1231  C     0.84404   0.44549   0.06885   0.00000  Uiso   1.00
C1232  C     0.85309   0.42500   0.11095   0.00000  Uiso   1.00
C1233  C     0.84701   0.58621   0.40027   0.00000  Uiso   1.00
C1234  C     0.79694   0.54556   0.19367   0.00000  Uiso   1.00
C1235  C     0.83128   0.57007   0.19367   0.00000  Uiso   1.00
C1236  C     0.87490   0.45070   0.28111   0.00000  Uiso   1.00
C1237  C     0.91187   0.43340   0.28273   0.00000  Uiso   1.00
C1238  C     0.81021   0.46420   0.32068   0.00000  Uiso   1.00
C1239  C     0.85022   0.44889   0.32268   0.00000  Uiso   1.00
C1240  C     0.86274   0.56957   0.48802   0.00000  Uiso   1.00
C1241  C     0.89195   0.58934   0.23361   0.00000  Uiso   1.00
C1242  C     0.89729   0.58822   0.48407   0.00000  Uiso   1.00
C1243  C     0.88944   0.40678   0.11371   0.00000  Uiso   1.00
C1244  C     0.92413   0.41274   0.32593   0.00000  Uiso   1.00
C1245  C     0.83862   0.59560   0.65513   0.00000  Uiso   1.00
C1246  C     0.86289   0.56488   0.98075   0.00000  Uiso   1.00
C1247  C     0.89263   0.58992   0.73341   0.00000  Uiso   1.00
C1248  C     0.91970   0.40596   0.57366   0.00000  Uiso   1.00
C1249  C     0.87445   0.44732   0.52719   0.00000  Uiso   1.00
C1250  C     0.84944   0.42261   0.86081   0.00000  Uiso   1.00
C1251  C     0.91028   0.42589   0.52995   0.00000  Uiso   1.00
C1252  C     0.85435   0.57298   0.73657   0.00000  Uiso   1.00
C1253  C     0.80923   0.46509   0.56444   0.00000  Uiso   1.00
C1254  C     0.84749   0.44706   0.56746   0.00000  Uiso   1.00
C1255  C     0.85624   0.42195   0.60689   0.00000  Uiso   1.00
C1256  C     0.88554   0.40360   0.86542   0.00000  Uiso   1.00
C1257  C     0.79313   0.55033   0.69376   0.00000  Uiso   1.00
C1258  C     0.82801   0.57546   0.69602   0.00000  Uiso   1.00
C1259  C     0.87014   0.44942   0.78120   0.00000  Uiso   1.00
C1260  C     0.79922   0.54474   0.94539   0.00000  Uiso   1.00
C1261  C     0.90775   0.43297   0.78703   0.00000  Uiso   1.00
C1262  C     0.80141   0.46173   0.81716   0.00000  Uiso   1.00
C1263  C     0.84142   0.44307   0.81814   0.00000  Uiso   1.00
C1264  C     0.83323   0.56946   0.94493   0.00000  Uiso   1.00
C1265  C     0.89841   0.58484   0.98000   0.00000  Uiso   1.00
C1266  C     0.89170   0.40375   0.61181   0.00000  Uiso   1.00
C1267  C     0.84153   0.59151   0.90396   0.00000  Uiso   1.00
C1268  C     0.91397   0.40708   0.82499   0.00000  Uiso   1.00
C1269  C     0.90378   0.60711   0.19075   0.00000  Uiso   1.00
C1270  C     0.80753   0.79540   0.31670   0.00000  Uiso   1.00
C1271  C     0.90835   0.60613   0.44093   0.00000  Uiso   1.00
C1272  C     0.93958   0.62871   0.19221   0.00000  Uiso   1.00
C1273  C     0.87088   0.77431   0.02224   0.00000  Uiso   1.00
C1274  C     0.90663   0.75559   0.02481   0.00000  Uiso   1.00
C1275  C     0.84427   0.77359   0.06499   0.00000  Uiso   1.00
C1276  C     0.94917   0.71071   0.06571   0.00000  Uiso   1.00
C1277  C     0.91507   0.73494   0.06726   0.00000  Uiso   1.00
C1278  C     0.85317   0.75203   0.10727   0.00000  Uiso   1.00
C1279  C     0.88884   0.73350   0.10900   0.00000  Uiso   1.00
C1280  C     0.94651   0.62757   0.44143   0.00000  Uiso   1.00
C1281  C     0.87645   0.61052   0.14903   0.00000  Uiso   1.00
C1282  C     0.87151   0.77662   0.27576   0.00000  Uiso   1.00
C1283  C     0.90628   0.75731   0.27535   0.00000  Uiso   1.00
C1284  C     0.84502   0.77417   0.31641   0.00000  Uiso   1.00
C1285  C     0.95023   0.71095   0.31730   0.00000  Uiso   1.00
C1286  C     0.91561   0.73550   0.31716   0.00000  Uiso   1.00
C1287  C     0.85504   0.75260   0.35913   0.00000  Uiso   1.00
C1288  C     0.89022   0.73472   0.36059   0.00000  Uiso   1.00
C1289  C     0.88155   0.60704   0.39774   0.00000  Uiso   1.00
C1290  C     0.80705   0.79420   0.06578   0.00000  Uiso   1.00
C1291  C     0.94020   0.62805   0.69009   0.00000  Uiso   1.00
C1292  C     0.87526   0.77932   0.52755   0.00000  Uiso   1.00
C1293  C     0.91040   0.76235   0.53000   0.00000  Uiso   1.00
C1294  C     0.87585   0.61227   0.65210   0.00000  Uiso   1.00
C1295  C     0.84595   0.77249   0.56371   0.00000  Uiso   1.00
C1296  C     0.95400   0.71552   0.56791   0.00000  Uiso   1.00
C1297  C     0.92086   0.73861   0.57101   0.00000  Uiso   1.00
C1298  C     0.85667   0.75278   0.60750   0.00000  Uiso   1.00
C1299  C     0.89333   0.73657   0.61128   0.00000  Uiso   1.00
C1300  C     0.94123   0.62603   0.93673   0.00000  Uiso   1.00
C1301  C     0.87294   0.78024   0.77653   0.00000  Uiso   1.00
C1302  C     0.90736   0.75819   0.77837   0.00000  Uiso   1.00
C1303  C     0.80778   0.79681   0.81437   0.00000  Uiso   1.00
C1304  C     0.84454   0.77625   0.81218   0.00000  Uiso   1.00
C1305  C     0.95031   0.71334   0.81788   0.00000  Uiso   1.00
C1306  C     0.91501   0.73670   0.81888   0.00000  Uiso   1.00
C1307  C     0.85047   0.75192   0.85303   0.00000  Uiso   1.00
C1308  C     0.88672   0.73426   0.85820   0.00000  Uiso   1.00
C1309  C     0.87624   0.61122   0.90128   0.00000  Uiso   1.00
C1310  C     0.90391   0.60942   0.69293   0.00000  Uiso   1.00
C1311  C     0.90462   0.60790   0.94028   0.00000  Uiso   1.00
C1312  C     0.80847   0.79357   0.56676   0.00000  Uiso   1.00
C1313  C     0.85301   0.90993   0.49104   0.00000  Uiso   1.00
C1314  C     0.89084   0.92591   0.48881   0.00000  Uiso   1.00
C1315  C     0.89028   0.92934   0.23974   0.00000  Uiso   1.00
C1316  C     0.85336   0.91082   0.24117   0.00000  Uiso   1.00
C1317  C     0.87598   0.94480   0.15173   0.00000  Uiso   1.00
C1318  C     0.83904   0.92839   0.15692   0.00000  Uiso   1.00
C1319  C     0.94014   0.96635   0.19418   0.00000  Uiso   1.00
C1320  C     0.90249   0.94620   0.19404   0.00000  Uiso   1.00
C1321  C     0.79340   0.88526   0.19782   0.00000  Uiso   1.00
C1322  C     0.82713   0.91096   0.20028   0.00000  Uiso   1.00
C1323  C     0.87509   0.94975   0.40655   0.00000  Uiso   1.00
C1324  C     0.83793   0.93179   0.40782   0.00000  Uiso   1.00
C1325  C     0.94036   0.96354   0.44498   0.00000  Uiso   1.00
C1326  C     0.90235   0.94496   0.44585   0.00000  Uiso   1.00
C1327  C     0.79556   0.88459   0.44542   0.00000  Uiso   1.00
C1328  C     0.82828   0.91080   0.45010   0.00000  Uiso   1.00
C1329  C     0.85834   0.90345   0.98202   0.00000  Uiso   1.00
C1330  C     0.89425   0.92064   0.98076   0.00000  Uiso   1.00
C1331  C     0.89145   0.92191   0.73123   0.00000  Uiso   1.00
C1332  C     0.85636   0.90305   0.73107   0.00000  Uiso   1.00
C1333  C     0.87569   0.94522   0.64815   0.00000  Uiso   1.00
C1334  C     0.83913   0.92957   0.65014   0.00000  Uiso   1.00
C1335  C     0.94067   0.96131   0.68959   0.00000  Uiso   1.00
C1336  C     0.90247   0.94221   0.68860   0.00000  Uiso   1.00
C1337  C     0.79428   0.88339   0.69292   0.00000  Uiso   1.00
C1338  C     0.82838   0.90738   0.69253   0.00000  Uiso   1.00
C1339  C     0.87596   0.94745   0.89931   0.00000  Uiso   1.00
C1340  C     0.83893   0.93034   0.89993   0.00000  Uiso   1.00
C1341  C     0.94083   0.96271   0.94072   0.00000  Uiso   1.00
C1342  C     0.90335   0.94269   0.93890   0.00000  Uiso   1.00
C1343  C     0.79700   0.88359   0.94233   0.00000  Uiso   1.00
C1344  C     0.82921   0.91034   0.94410   0.00000  Uiso   1.00
O1345  O     0.21134   0.19692   0.40057   0.00000  Uiso   1.00
O1346  O     0.04314   0.02599   0.35961   0.00000  Uiso   1.00
O1347  O     0.20678   0.19828   0.23147   0.00000  Uiso   1.00
O1348  O     0.20861   0.19638   0.48832   0.00000  Uiso   1.00
O1349  O     0.04164   0.02975   0.27259   0.00000  Uiso   1.00
O1350  O     0.21522   0.12778   0.27587   0.00000  Uiso   1.00
O1351  O     0.21381   0.12973   0.11232   0.00000  Uiso   1.00
O1352  O     0.21736   0.12820   0.36464   0.00000  Uiso   1.00
O1353  O     0.04462   0.02348   0.11705   0.00000  Uiso   1.00
O1354  O     0.21457   0.12759   0.02509   0.00000  Uiso   1.00
O1355  O     0.04047   0.02551   0.02667   0.00000  Uiso   1.00
O1356  O     0.21138   0.19929   0.14268   0.00000  Uiso   1.00
O1357  O     0.20898   0.19575   0.74180   0.00000  Uiso   1.00
O1358  O     0.21629   0.12561   0.77942   0.00000  Uiso   1.00
O1359  O     0.04183   0.02618   0.77191   0.00000  Uiso   1.00
O1360  O     0.04293   0.02324   0.85858   0.00000  Uiso   1.00
O1361  O     0.21390   0.12739   0.86731   0.00000  Uiso   1.00
O1362  O     0.21583   0.13107   0.61393   0.00000  Uiso   1.00
O1363  O     0.04400   0.02856   0.60854   0.00000  Uiso   1.00
O1364  O     0.21556   0.12775   0.52583   0.00000  Uiso   1.00
O1365  O     0.04507   0.02923   0.51950   0.00000  Uiso   1.00
O1366  O     0.20481   0.19080   0.99014   0.00000  Uiso   1.00
O1367  O     0.21007   0.19676   0.90471   0.00000  Uiso   1.00
O1368  O     0.03370   0.30060   0.23746   0.00000  Uiso   1.00
O1369  O     0.04224   0.36406   0.27236   0.00000  Uiso   1.00
O1370  O     0.03453   0.29927   0.15265   0.00000  Uiso   1.00
O1371  O     0.04464   0.35670   0.35668   0.00000  Uiso   1.00
O1372  O     0.03738   0.30151   0.48834   0.00000  Uiso   1.00
O1373  O     0.03717   0.29980   0.40175   0.00000  Uiso   1.00
O1374  O     0.04022   0.36352   0.02944   0.00000  Uiso   1.00
O1375  O     0.04029   0.35895   0.11635   0.00000  Uiso   1.00
O1376  O     0.03703   0.30355   0.74273   0.00000  Uiso   1.00
O1377  O     0.03824   0.36860   0.77316   0.00000  Uiso   1.00
O1378  O     0.04414   0.35490   0.86012   0.00000  Uiso   1.00
O1379  O     0.03861   0.30713   0.98716   0.00000  Uiso   1.00
O1380  O     0.03507   0.30030   0.90373   0.00000  Uiso   1.00
O1381  O     0.04271   0.36267   0.52841   0.00000  Uiso   1.00
O1382  O     0.04644   0.35425   0.61541   0.00000  Uiso   1.00
O1383  O     0.03537   0.29817   0.65593   0.00000  Uiso   1.00
O1384  O     0.21079   0.20021   0.65445   0.00000  Uiso   1.00
O1385  O     0.20807   0.52977   0.15305   0.00000  Uiso   1.00
O1386  O     0.21882   0.46289   0.37015   0.00000  Uiso   1.00
O1387  O     0.21595   0.46623   0.12136   0.00000  Uiso   1.00
O1388  O     0.20491   0.52639   0.49116   0.00000  Uiso   1.00
O1389  O     0.21312   0.53393   0.40488   0.00000  Uiso   1.00
O1390  O     0.21502   0.46598   0.03418   0.00000  Uiso   1.00
O1391  O     0.20539   0.52912   0.24050   0.00000  Uiso   1.00
O1392  O     0.21519   0.46470   0.28205   0.00000  Uiso   1.00
O1393  O     0.21807   0.46116   0.61820   0.00000  Uiso   1.00
O1394  O     0.21330   0.46268   0.78209   0.00000  Uiso   1.00
O1395  O     0.21043   0.53199   0.65331   0.00000  Uiso   1.00
O1396  O     0.21042   0.52787   0.90208   0.00000  Uiso   1.00
O1397  O     0.21509   0.46342   0.53138   0.00000  Uiso   1.00
O1398  O     0.21325   0.53037   0.73900   0.00000  Uiso   1.00
O1399  O     0.21667   0.46103   0.86986   0.00000  Uiso   1.00
O1400  O     0.20897   0.52843   0.99206   0.00000  Uiso   1.00
O1401  O     0.03497   0.63168   0.39918   0.00000  Uiso   1.00
O1402  O     0.04227   0.69219   0.27012   0.00000  Uiso   1.00
O1403  O     0.21573   0.79136   0.02722   0.00000  Uiso   1.00
O1404  O     0.21307   0.79756   0.27666   0.00000  Uiso   1.00
O1405  O     0.03437   0.70059   0.02546   0.00000  Uiso   1.00
O1406  O     0.03348   0.62686   0.14719   0.00000  Uiso   1.00
O1407  O     0.02813   0.62673   0.23366   0.00000  Uiso   1.00
O1408  O     0.04314   0.68253   0.10884   0.00000  Uiso   1.00
O1409  O     0.04020   0.69093   0.35719   0.00000  Uiso   1.00
O1410  O     0.04060   0.63589   0.48615   0.00000  Uiso   1.00
O1411  O     0.21339   0.79519   0.11297   0.00000  Uiso   1.00
O1412  O     0.21474   0.79983   0.36280   0.00000  Uiso   1.00
O1413  O     0.03830   0.69667   0.77004   0.00000  Uiso   1.00
O1414  O     0.04622   0.68475   0.85727   0.00000  Uiso   1.00
O1415  O     0.03674   0.63326   0.98657   0.00000  Uiso   1.00
O1416  O     0.04013   0.69749   0.52147   0.00000  Uiso   1.00
O1417  O     0.02980   0.62266   0.89767   0.00000  Uiso   1.00
O1418  O     0.03714   0.63140   0.65115   0.00000  Uiso   1.00
O1419  O     0.03640   0.63619   0.73638   0.00000  Uiso   1.00
O1420  O     0.21240   0.79324   0.86189   0.00000  Uiso   1.00
O1421  O     0.04341   0.68959   0.60948   0.00000  Uiso   1.00
O1422  O     0.21803   0.79596   0.53213   0.00000  Uiso   1.00
O1423  O     0.21510   0.79170   0.77410   0.00000  Uiso   1.00
O1424  O     0.21000   0.86470   0.40106   0.00000  Uiso   1.00
O1425  O     0.20703   0.86345   0.48838   0.00000  Uiso   1.00
O1426  O     0.03510   0.96747   0.48210   0.00000  Uiso   1.00
O1427  O     0.03326   0.96440   0.15762   0.00000  Uiso   1.00
O1428  O     0.21002   0.86345   0.14880   0.00000  Uiso   1.00
O1429  O     0.03881   0.97432   0.24323   0.00000  Uiso   1.00
O1430  O     0.21112   0.86485   0.23732   0.00000  Uiso   1.00
O1431  O     0.03438   0.96583   0.39409   0.00000  Uiso   1.00
O1432  O     0.03328   0.96488   0.99236   0.00000  Uiso   1.00
O1433  O     0.20517   0.85698   0.98919   0.00000  Uiso   1.00
O1434  O     0.03510   0.96531   0.64674   0.00000  Uiso   1.00
O1435  O     0.21159   0.86417   0.65043   0.00000  Uiso   1.00
O1436  O     0.03369   0.96478   0.73607   0.00000  Uiso   1.00
O1437  O     0.20322   0.85867   0.73669   0.00000  Uiso   1.00
O1438  O     0.03586   0.96672   0.90706   0.00000  Uiso   1.00
O1439  O     0.20773   0.86129   0.90257   0.00000  Uiso   1.00
O1440  O     0.21310   0.80120   0.61837   0.00000  Uiso   1.00
O1441  O     0.28608   0.19826   0.48555   0.00000  Uiso   1.00
O1442  O     0.29561   0.13850   0.11431   0.00000  Uiso   1.00
O1443  O     0.46234   0.03813   0.36748   0.00000  Uiso   1.00
O1444  O     0.29256   0.14186   0.35574   0.00000  Uiso   1.00
O1445  O     0.46523   0.03054   0.11429   0.00000  Uiso   1.00
O1446  O     0.46307   0.03913   0.28018   0.00000  Uiso   1.00
O1447  O     0.29186   0.14257   0.26827   0.00000  Uiso   1.00
O1448  O     0.46239   0.03243   0.02745   0.00000  Uiso   1.00
O1449  O     0.29203   0.13687   0.02833   0.00000  Uiso   1.00
O1450  O     0.28664   0.19868   0.39734   0.00000  Uiso   1.00
O1451  O     0.28391   0.19965   0.23709   0.00000  Uiso   1.00
O1452  O     0.46215   0.03186   0.61519   0.00000  Uiso   1.00
O1453  O     0.46665   0.03802   0.77801   0.00000  Uiso   1.00
O1454  O     0.29331   0.13916   0.86111   0.00000  Uiso   1.00
O1455  O     0.29249   0.13996   0.61581   0.00000  Uiso   1.00
O1456  O     0.29367   0.13928   0.77374   0.00000  Uiso   1.00
O1457  O     0.46990   0.03854   0.86479   0.00000  Uiso   1.00
O1458  O     0.46990   0.04240   0.52939   0.00000  Uiso   1.00
O1459  O     0.28911   0.13784   0.52928   0.00000  Uiso   1.00
O1460  O     0.28801   0.19471   0.98294   0.00000  Uiso   1.00
O1461  O     0.28469   0.19864   0.74622   0.00000  Uiso   1.00
O1462  O     0.28608   0.19470   0.89667   0.00000  Uiso   1.00
O1463  O     0.45188   0.31022   0.48997   0.00000  Uiso   1.00
O1464  O     0.45710   0.30590   0.40275   0.00000  Uiso   1.00
O1465  O     0.46527   0.37205   0.36565   0.00000  Uiso   1.00
O1466  O     0.45366   0.30561   0.23577   0.00000  Uiso   1.00
O1467  O     0.45636   0.30541   0.14733   0.00000  Uiso   1.00
O1468  O     0.46145   0.36760   0.02124   0.00000  Uiso   1.00
O1469  O     0.46695   0.37093   0.10819   0.00000  Uiso   1.00
O1470  O     0.46431   0.37255   0.27712   0.00000  Uiso   1.00
O1471  O     0.28637   0.20116   0.14938   0.00000  Uiso   1.00
O1472  O     0.45800   0.30191   0.98640   0.00000  Uiso   1.00
O1473  O     0.46482   0.36426   0.86273   0.00000  Uiso   1.00
O1474  O     0.45752   0.30390   0.73660   0.00000  Uiso   1.00
O1475  O     0.46179   0.30032   0.89909   0.00000  Uiso   1.00
O1476  O     0.45650   0.30680   0.65032   0.00000  Uiso   1.00
O1477  O     0.46267   0.36928   0.52352   0.00000  Uiso   1.00
O1478  O     0.46367   0.36395   0.60996   0.00000  Uiso   1.00
O1479  O     0.46480   0.36586   0.77806   0.00000  Uiso   1.00
O1480  O     0.28684   0.20006   0.65838   0.00000  Uiso   1.00
O1481  O     0.29193   0.47333   0.11772   0.00000  Uiso   1.00
O1482  O     0.28594   0.53654   0.15759   0.00000  Uiso   1.00
O1483  O     0.29989   0.48125   0.36247   0.00000  Uiso   1.00
O1484  O     0.29662   0.47848   0.27589   0.00000  Uiso   1.00
O1485  O     0.28586   0.53386   0.49449   0.00000  Uiso   1.00
O1486  O     0.29111   0.47116   0.03237   0.00000  Uiso   1.00
O1487  O     0.28699   0.53428   0.40644   0.00000  Uiso   1.00
O1488  O     0.28001   0.53970   0.24513   0.00000  Uiso   1.00
O1489  O     0.29529   0.47669   0.61706   0.00000  Uiso   1.00
O1490  O     0.28749   0.53321   0.65991   0.00000  Uiso   1.00
O1491  O     0.29250   0.46795   0.86642   0.00000  Uiso   1.00
O1492  O     0.28968   0.46652   0.77961   0.00000  Uiso   1.00
O1493  O     0.28707   0.46713   0.53106   0.00000  Uiso   1.00
O1494  O     0.29075   0.52826   0.90446   0.00000  Uiso   1.00
O1495  O     0.29315   0.52966   0.74646   0.00000  Uiso   1.00
O1496  O     0.28720   0.53400   0.99271   0.00000  Uiso   1.00
O1497  O     0.45679   0.63895   0.40423   0.00000  Uiso   1.00
O1498  O     0.46609   0.70165   0.03204   0.00000  Uiso   1.00
O1499  O     0.46771   0.70421   0.37355   0.00000  Uiso   1.00
O1500  O     0.46419   0.70131   0.28737   0.00000  Uiso   1.00
O1501  O     0.45757   0.64086   0.49221   0.00000  Uiso   1.00
O1502  O     0.46494   0.69956   0.11753   0.00000  Uiso   1.00
O1503  O     0.45643   0.63569   0.15422   0.00000  Uiso   1.00
O1504  O     0.45301   0.64194   0.24166   0.00000  Uiso   1.00
O1505  O     0.45792   0.64455   0.90966   0.00000  Uiso   1.00
O1506  O     0.46115   0.70436   0.86694   0.00000  Uiso   1.00
O1507  O     0.46990   0.70716   0.78060   0.00000  Uiso   1.00
O1508  O     0.46269   0.70162   0.52659   0.00000  Uiso   1.00
O1509  O     0.46301   0.63991   0.74403   0.00000  Uiso   1.00
O1510  O     0.45604   0.64075   0.99472   0.00000  Uiso   1.00
O1511  O     0.45980   0.64183   0.65565   0.00000  Uiso   1.00
O1512  O     0.46605   0.70554   0.61375   0.00000  Uiso   1.00
O1513  O     0.45964   0.97094   0.40340   0.00000  Uiso   1.00
O1514  O     0.45553   0.97493   0.49279   0.00000  Uiso   1.00
O1515  O     0.28922   0.80314   0.27568   0.00000  Uiso   1.00
O1516  O     0.28987   0.85937   0.24040   0.00000  Uiso   1.00
O1517  O     0.45409   0.97641   0.24095   0.00000  Uiso   1.00
O1518  O     0.28569   0.86668   0.40255   0.00000  Uiso   1.00
O1519  O     0.28786   0.86441   0.15244   0.00000  Uiso   1.00
O1520  O     0.46182   0.96460   0.15363   0.00000  Uiso   1.00
O1521  O     0.28702   0.86648   0.48846   0.00000  Uiso   1.00
O1522  O     0.29072   0.80248   0.11333   0.00000  Uiso   1.00
O1523  O     0.29396   0.80766   0.36394   0.00000  Uiso   1.00
O1524  O     0.29029   0.80154   0.02500   0.00000  Uiso   1.00
O1525  O     0.29369   0.80833   0.86220   0.00000  Uiso   1.00
O1526  O     0.46025   0.96735   0.89420   0.00000  Uiso   1.00
O1527  O     0.29256   0.80969   0.52247   0.00000  Uiso   1.00
O1528  O     0.45819   0.96590   0.98275   0.00000  Uiso   1.00
O1529  O     0.28825   0.80466   0.77561   0.00000  Uiso   1.00
O1530  O     0.28395   0.86521   0.74751   0.00000  Uiso   1.00
O1531  O     0.28373   0.86209   0.98445   0.00000  Uiso   1.00
O1532  O     0.45381   0.97523   0.73631   0.00000  Uiso   1.00
O1533  O     0.28318   0.86400   0.89647   0.00000  Uiso   1.00
O1534  O     0.28321   0.86727   0.65933   0.00000  Uiso   1.00
O1535  O     0.45830   0.96492   0.65334   0.00000  Uiso   1.00
O1536  O     0.29444   0.81095   0.60977   0.00000  Uiso   1.00
O1537  O     0.71787   0.13240   0.36286   0.00000  Uiso   1.00
O1538  O     0.71509   0.13153   0.27561   0.00000  Uiso   1.00
O1539  O     0.71630   0.12936   0.10247   0.00000  Uiso   1.00
O1540  O     0.54026   0.02730   0.27877   0.00000  Uiso   1.00
O1541  O     0.54709   0.01861   0.10836   0.00000  Uiso   1.00
O1542  O     0.54158   0.02850   0.36554   0.00000  Uiso   1.00
O1543  O     0.71683   0.12372   0.01690   0.00000  Uiso   1.00
O1544  O     0.53895   0.02953   0.02400   0.00000  Uiso   1.00
O1545  O     0.70595   0.19808   0.22992   0.00000  Uiso   1.00
O1546  O     0.70610   0.19692   0.48484   0.00000  Uiso   1.00
O1547  O     0.70936   0.19948   0.14079   0.00000  Uiso   1.00
O1548  O     0.70680   0.19631   0.39764   0.00000  Uiso   1.00
O1549  O     0.54274   0.03091   0.77326   0.00000  Uiso   1.00
O1550  O     0.71882   0.13217   0.86247   0.00000  Uiso   1.00
O1551  O     0.71264   0.13739   0.61322   0.00000  Uiso   1.00
O1552  O     0.54701   0.02461   0.85899   0.00000  Uiso   1.00
O1553  O     0.54372   0.02602   0.61788   0.00000  Uiso   1.00
O1554  O     0.71506   0.13083   0.77554   0.00000  Uiso   1.00
O1555  O     0.71556   0.13346   0.52557   0.00000  Uiso   1.00
O1556  O     0.54477   0.02535   0.53057   0.00000  Uiso   1.00
O1557  O     0.70806   0.18976   0.73514   0.00000  Uiso   1.00
O1558  O     0.71234   0.19898   0.89800   0.00000  Uiso   1.00
O1559  O     0.70572   0.18766   0.98401   0.00000  Uiso   1.00
O1560  O     0.70579   0.19283   0.64614   0.00000  Uiso   1.00
O1561  O     0.54108   0.35902   0.27253   0.00000  Uiso   1.00
O1562  O     0.53377   0.30104   0.23794   0.00000  Uiso   1.00
O1563  O     0.53653   0.30230   0.15022   0.00000  Uiso   1.00
O1564  O     0.54548   0.35626   0.35835   0.00000  Uiso   1.00
O1565  O     0.53258   0.29567   0.39378   0.00000  Uiso   1.00
O1566  O     0.53470   0.36492   0.02331   0.00000  Uiso   1.00
O1567  O     0.54321   0.35973   0.10957   0.00000  Uiso   1.00
O1568  O     0.53032   0.29769   0.48402   0.00000  Uiso   1.00
O1569  O     0.53487   0.29703   0.73880   0.00000  Uiso   1.00
O1570  O     0.54037   0.36027   0.77513   0.00000  Uiso   1.00
O1571  O     0.54526   0.35457   0.86065   0.00000  Uiso   1.00
O1572  O     0.53813   0.30148   0.98862   0.00000  Uiso   1.00
O1573  O     0.53699   0.29626   0.90345   0.00000  Uiso   1.00
O1574  O     0.53867   0.36259   0.52728   0.00000  Uiso   1.00
O1575  O     0.54136   0.35903   0.61386   0.00000  Uiso   1.00
O1576  O     0.53206   0.29159   0.65005   0.00000  Uiso   1.00
O1577  O     0.70634   0.52949   0.40097   0.00000  Uiso   1.00
O1578  O     0.70632   0.53036   0.14785   0.00000  Uiso   1.00
O1579  O     0.71780   0.46144   0.11087   0.00000  Uiso   1.00
O1580  O     0.70903   0.46571   0.02472   0.00000  Uiso   1.00
O1581  O     0.71785   0.46028   0.35865   0.00000  Uiso   1.00
O1582  O     0.71822   0.45963   0.27009   0.00000  Uiso   1.00
O1583  O     0.70835   0.52844   0.23615   0.00000  Uiso   1.00
O1584  O     0.70091   0.52185   0.48698   0.00000  Uiso   1.00
O1585  O     0.70419   0.52964   0.98151   0.00000  Uiso   1.00
O1586  O     0.71781   0.45962   0.53038   0.00000  Uiso   1.00
O1587  O     0.70959   0.46960   0.61552   0.00000  Uiso   1.00
O1588  O     0.70780   0.46601   0.86242   0.00000  Uiso   1.00
O1589  O     0.71263   0.46279   0.77432   0.00000  Uiso   1.00
O1590  O     0.70301   0.52673   0.73243   0.00000  Uiso   1.00
O1591  O     0.70254   0.52525   0.89403   0.00000  Uiso   1.00
O1592  O     0.70664   0.52971   0.64564   0.00000  Uiso   1.00
O1593  O     0.54194   0.69266   0.28058   0.00000  Uiso   1.00
O1594  O     0.71263   0.79782   0.27538   0.00000  Uiso   1.00
O1595  O     0.53342   0.62840   0.49616   0.00000  Uiso   1.00
O1596  O     0.54298   0.69345   0.03297   0.00000  Uiso   1.00
O1597  O     0.53189   0.62491   0.40704   0.00000  Uiso   1.00
O1598  O     0.54599   0.69077   0.36811   0.00000  Uiso   1.00
O1599  O     0.53268   0.62861   0.15887   0.00000  Uiso   1.00
O1600  O     0.53337   0.62866   0.24756   0.00000  Uiso   1.00
O1601  O     0.54615   0.69034   0.11829   0.00000  Uiso   1.00
O1602  O     0.54075   0.70062   0.86404   0.00000  Uiso   1.00
O1603  O     0.54766   0.69310   0.78170   0.00000  Uiso   1.00
O1604  O     0.53390   0.63540   0.90231   0.00000  Uiso   1.00
O1605  O     0.54200   0.69572   0.52817   0.00000  Uiso   1.00
O1606  O     0.53307   0.63267   0.98942   0.00000  Uiso   1.00
O1607  O     0.53865   0.63679   0.65461   0.00000  Uiso   1.00
O1608  O     0.53582   0.63440   0.74213   0.00000  Uiso   1.00
O1609  O     0.54112   0.69797   0.61322   0.00000  Uiso   1.00
O1610  O     0.71519   0.79524   0.52438   0.00000  Uiso   1.00
O1611  O     0.71735   0.79783   0.77800   0.00000  Uiso   1.00
O1612  O     0.70505   0.85553   0.49266   0.00000  Uiso   1.00
O1613  O     0.71273   0.80588   0.10904   0.00000  Uiso   1.00
O1614  O     0.53987   0.96937   0.49256   0.00000  Uiso   1.00
O1615  O     0.53297   0.96144   0.15465   0.00000  Uiso   1.00
O1616  O     0.71022   0.86345   0.14903   0.00000  Uiso   1.00
O1617  O     0.53540   0.96766   0.24404   0.00000  Uiso   1.00
O1618  O     0.70675   0.85916   0.23553   0.00000  Uiso   1.00
O1619  O     0.53606   0.96777   0.40496   0.00000  Uiso   1.00
O1620  O     0.70740   0.85737   0.40416   0.00000  Uiso   1.00
O1621  O     0.71124   0.80095   0.02217   0.00000  Uiso   1.00
O1622  O     0.71472   0.80098   0.36405   0.00000  Uiso   1.00
O1623  O     0.70965   0.86067   0.89864   0.00000  Uiso   1.00
O1624  O     0.70753   0.85703   0.98568   0.00000  Uiso   1.00
O1625  O     0.53822   0.96353   0.65199   0.00000  Uiso   1.00
O1626  O     0.70665   0.85894   0.64751   0.00000  Uiso   1.00
O1627  O     0.53603   0.96540   0.73861   0.00000  Uiso   1.00
O1628  O     0.70370   0.85122   0.73345   0.00000  Uiso   1.00
O1629  O     0.54051   0.96530   0.90266   0.00000  Uiso   1.00
O1630  O     0.53551   0.96266   0.99153   0.00000  Uiso   1.00
O1631  O     0.71173   0.80173   0.61269   0.00000  Uiso   1.00
O1632  O     0.71668   0.80146   0.86434   0.00000  Uiso   1.00
O1633  O     0.96384   0.03820   0.36468   0.00000  Uiso   1.00
O1634  O     0.79392   0.14028   0.11210   0.00000  Uiso   1.00
O1635  O     0.79563   0.14766   0.36026   0.00000  Uiso   1.00
O1636  O     0.96403   0.03379   0.11163   0.00000  Uiso   1.00
O1637  O     0.96573   0.04166   0.27853   0.00000  Uiso   1.00
O1638  O     0.79191   0.14202   0.27345   0.00000  Uiso   1.00
O1639  O     0.96642   0.03762   0.02640   0.00000  Uiso   1.00
O1640  O     0.78853   0.13059   0.02734   0.00000  Uiso   1.00
O1641  O     0.79197   0.13034   0.77256   0.00000  Uiso   1.00
O1642  O     0.96591   0.03655   0.86900   0.00000  Uiso   1.00
O1643  O     0.79748   0.14393   0.85656   0.00000  Uiso   1.00
O1644  O     0.96469   0.03714   0.60900   0.00000  Uiso   1.00
O1645  O     0.96788   0.03811   0.77879   0.00000  Uiso   1.00
O1646  O     0.79238   0.14233   0.60607   0.00000  Uiso   1.00
O1647  O     0.97271   0.04447   0.52357   0.00000  Uiso   1.00
O1648  O     0.79532   0.14266   0.51779   0.00000  Uiso   1.00
O1649  O     0.78911   0.19330   0.98804   0.00000  Uiso   1.00
O1650  O     0.78909   0.19760   0.73436   0.00000  Uiso   1.00
O1651  O     0.95876   0.30525   0.48787   0.00000  Uiso   1.00
O1652  O     0.78499   0.20114   0.14328   0.00000  Uiso   1.00
O1653  O     0.96580   0.37178   0.36837   0.00000  Uiso   1.00
O1654  O     0.95279   0.30784   0.23742   0.00000  Uiso   1.00
O1655  O     0.95840   0.30540   0.39973   0.00000  Uiso   1.00
O1656  O     0.95959   0.29924   0.15138   0.00000  Uiso   1.00
O1657  O     0.97044   0.37895   0.02781   0.00000  Uiso   1.00
O1658  O     0.96182   0.36615   0.11495   0.00000  Uiso   1.00
O1659  O     0.96851   0.37571   0.27728   0.00000  Uiso   1.00
O1660  O     0.78382   0.20934   0.39492   0.00000  Uiso   1.00
O1661  O     0.78419   0.20448   0.48346   0.00000  Uiso   1.00
O1662  O     0.78276   0.20254   0.23102   0.00000  Uiso   1.00
O1663  O     0.95889   0.31109   0.98900   0.00000  Uiso   1.00
O1664  O     0.96060   0.36603   0.86495   0.00000  Uiso   1.00
O1665  O     0.95597   0.30709   0.73524   0.00000  Uiso   1.00
O1666  O     0.96424   0.29726   0.90413   0.00000  Uiso   1.00
O1667  O     0.96181   0.29843   0.64880   0.00000  Uiso   1.00
O1668  O     0.96751   0.37244   0.52582   0.00000  Uiso   1.00
O1669  O     0.96396   0.36642   0.61304   0.00000  Uiso   1.00
O1670  O     0.96251   0.37464   0.77947   0.00000  Uiso   1.00
O1671  O     0.77996   0.20852   0.64953   0.00000  Uiso   1.00
O1672  O     0.78528   0.20354   0.90168   0.00000  Uiso   1.00
O1673  O     0.79335   0.47806   0.10863   0.00000  Uiso   1.00
O1674  O     0.78393   0.53537   0.14902   0.00000  Uiso   1.00
O1675  O     0.79352   0.47268   0.36241   0.00000  Uiso   1.00
O1676  O     0.78775   0.46966   0.02278   0.00000  Uiso   1.00
O1677  O     0.78828   0.52966   0.48677   0.00000  Uiso   1.00
O1678  O     0.78298   0.53326   0.23611   0.00000  Uiso   1.00
O1679  O     0.78838   0.53223   0.40059   0.00000  Uiso   1.00
O1680  O     0.79556   0.47621   0.27765   0.00000  Uiso   1.00
O1681  O     0.79506   0.48000   0.60665   0.00000  Uiso   1.00
O1682  O     0.77711   0.54278   0.64776   0.00000  Uiso   1.00
O1683  O     0.78708   0.46927   0.86019   0.00000  Uiso   1.00
O1684  O     0.78969   0.46712   0.52074   0.00000  Uiso   1.00
O1685  O     0.78498   0.53440   0.98845   0.00000  Uiso   1.00
O1686  O     0.78355   0.53428   0.90126   0.00000  Uiso   1.00
O1687  O     0.78167   0.53654   0.73700   0.00000  Uiso   1.00
O1688  O     0.78493   0.47023   0.77618   0.00000  Uiso   1.00
O1689  O     0.96227   0.69933   0.36008   0.00000  Uiso   1.00
O1690  O     0.95970   0.63794   0.48466   0.00000  Uiso   1.00
O1691  O     0.96051   0.69898   0.02176   0.00000  Uiso   1.00
O1692  O     0.96124   0.69653   0.27437   0.00000  Uiso   1.00
O1693  O     0.95898   0.63624   0.14854   0.00000  Uiso   1.00
O1694  O     0.95175   0.63985   0.23592   0.00000  Uiso   1.00
O1695  O     0.96345   0.69739   0.10838   0.00000  Uiso   1.00
O1696  O     0.96198   0.63555   0.39701   0.00000  Uiso   1.00
O1697  O     0.78612   0.79614   0.02340   0.00000  Uiso   1.00
O1698  O     0.78681   0.79957   0.27600   0.00000  Uiso   1.00
O1699  O     0.96865   0.70639   0.52313   0.00000  Uiso   1.00
O1700  O     0.96538   0.69895   0.60716   0.00000  Uiso   1.00
O1701  O     0.96148   0.69666   0.85946   0.00000  Uiso   1.00
O1702  O     0.95380   0.63792   0.98118   0.00000  Uiso   1.00
O1703  O     0.96515   0.70619   0.77280   0.00000  Uiso   1.00
O1704  O     0.96053   0.62958   0.89445   0.00000  Uiso   1.00
O1705  O     0.95769   0.63409   0.64686   0.00000  Uiso   1.00
O1706  O     0.95354   0.64253   0.73197   0.00000  Uiso   1.00
O1707  O     0.79200   0.79955   0.61035   0.00000  Uiso   1.00
O1708  O     0.95887   0.96880   0.40067   0.00000  Uiso   1.00
O1709  O     0.78016   0.87200   0.48859   0.00000  Uiso   1.00
O1710  O     0.79661   0.81160   0.10748   0.00000  Uiso   1.00
O1711  O     0.78312   0.86817   0.23859   0.00000  Uiso   1.00
O1712  O     0.95438   0.97699   0.48750   0.00000  Uiso   1.00
O1713  O     0.95589   0.97555   0.23643   0.00000  Uiso   1.00
O1714  O     0.78473   0.87312   0.39830   0.00000  Uiso   1.00
O1715  O     0.77943   0.87592   0.15335   0.00000  Uiso   1.00
O1716  O     0.95809   0.97116   0.15150   0.00000  Uiso   1.00
O1717  O     0.79386   0.80376   0.36030   0.00000  Uiso   1.00
O1718  O     0.95508   0.97524   0.98542   0.00000  Uiso   1.00
O1719  O     0.95990   0.96800   0.89869   0.00000  Uiso   1.00
O1720  O     0.78778   0.86512   0.98453   0.00000  Uiso   1.00
O1721  O     0.79280   0.80496   0.52488   0.00000  Uiso   1.00
O1722  O     0.78065   0.87122   0.73675   0.00000  Uiso   1.00
O1723  O     0.95517   0.97330   0.73263   0.00000  Uiso   1.00
O1724  O     0.78242   0.87668   0.89705   0.00000  Uiso   1.00
O1725  O     0.78424   0.86948   0.64978   0.00000  Uiso   1.00
O1726  O     0.95688   0.96843   0.64611   0.00000  Uiso   1.00
O1727  O     0.79571   0.80935   0.85888   0.00000  Uiso   1.00
O1728  O     0.78849   0.80233   0.77224   0.00000  Uiso   1.00
O1729  O     0.24580   0.14328   0.44714   0.00000  Uiso   1.00
O1730  O     0.23868   0.18659   0.31670   0.00000  Uiso   1.00
O1731  O     0.24427   0.18378   0.06708   0.00000  Uiso   1.00
O1732  O     0.24267   0.14282   0.19080   0.00000  Uiso   1.00
O1733  O     0.24206   0.18592   0.57237   0.00000  Uiso   1.00
O1734  O     0.24273   0.14015   0.94186   0.00000  Uiso   1.00
O1735  O     0.23456   0.18243   0.82131   0.00000  Uiso   1.00
O1736  O     0.24138   0.14371   0.69427   0.00000  Uiso   1.00
O1737  O     0.00160   0.01964   0.94642   0.00000  Uiso   1.00
O1738  O     0.00132   0.35600   0.44402   0.00000  Uiso   1.00
O1739  O     0.24455   0.52334   0.07544   0.00000  Uiso   1.00
O1740  O     0.24601   0.48105   0.20218   0.00000  Uiso   1.00
O1741  O     0.24050   0.52293   0.32498   0.00000  Uiso   1.00
O1742  O     0.24860   0.47756   0.45127   0.00000  Uiso   1.00
O1743  O     0.24802   0.47672   0.95270   0.00000  Uiso   1.00
O1744  O     0.24371   0.51928   0.82303   0.00000  Uiso   1.00
O1745  O     0.23983   0.51836   0.57539   0.00000  Uiso   1.00
O1746  O     0.24615   0.47669   0.69824   0.00000  Uiso   1.00
O1747  O     0.00203   0.68389   0.18731   0.00000  Uiso   1.00
O1748  O     0.00243   0.68590   0.93893   0.00000  Uiso   1.00
O1749  O     0.24251   0.84918   0.07118   0.00000  Uiso   1.00
O1750  O     0.24238   0.85545   0.31831   0.00000  Uiso   1.00
O1751  O     0.24720   0.81327   0.44419   0.00000  Uiso   1.00
O1752  O     0.24244   0.80704   0.19480   0.00000  Uiso   1.00
O1753  O     0.24615   0.85561   0.56932   0.00000  Uiso   1.00
O1754  O     0.23459   0.84922   0.82035   0.00000  Uiso   1.00
O1755  O     0.24385   0.80636   0.94542   0.00000  Uiso   1.00
O1756  O     0.24589   0.81091   0.69300   0.00000  Uiso   1.00
O1757  O     0.49797   0.02212   0.44750   0.00000  Uiso   1.00
O1758  O     0.49136   0.01839   0.94027   0.00000  Uiso   1.00
O1759  O     0.49658   0.02164   0.69319   0.00000  Uiso   1.00
O1760  O     0.48756   0.31267   0.31506   0.00000  Uiso   1.00
O1761  O     0.49074   0.31177   0.06840   0.00000  Uiso   1.00
O1762  O     0.49712   0.35698   0.19285   0.00000  Uiso   1.00
O1763  O     0.49862   0.30967   0.82085   0.00000  Uiso   1.00
O1764  O     0.49912   0.35411   0.94127   0.00000  Uiso   1.00
O1765  O     0.49892   0.63969   0.32359   0.00000  Uiso   1.00
O1766  O     0.49671   0.65038   0.82503   0.00000  Uiso   1.00
O1767  O     0.49563   0.64717   0.57310   0.00000  Uiso   1.00
O1768  O     0.49055   0.97797   0.06766   0.00000  Uiso   1.00
O1769  O     0.49360   0.97857   0.32412   0.00000  Uiso   1.00
O1770  O     0.49458   0.97854   0.81721   0.00000  Uiso   1.00
O1771  O     0.49422   0.97807   0.57275   0.00000  Uiso   1.00
O1772  O     0.74256   0.18618   0.06209   0.00000  Uiso   1.00
O1773  O     0.73688   0.19226   0.31511   0.00000  Uiso   1.00
O1774  O     0.74175   0.14649   0.19142   0.00000  Uiso   1.00
O1775  O     0.74653   0.14949   0.43915   0.00000  Uiso   1.00
O1776  O     0.50146   0.01996   0.19614   0.00000  Uiso   1.00
O1777  O     0.50406   0.35261   0.44164   0.00000  Uiso   1.00
O1778  O     0.50598   0.35468   0.69058   0.00000  Uiso   1.00
O1779  O     0.50327   0.30833   0.56759   0.00000  Uiso   1.00
O1780  O     0.74112   0.52061   0.06525   0.00000  Uiso   1.00
O1781  O     0.74610   0.47638   0.19340   0.00000  Uiso   1.00
O1782  O     0.73905   0.51738   0.31604   0.00000  Uiso   1.00
O1783  O     0.74383   0.47592   0.44221   0.00000  Uiso   1.00
O1784  O     0.74552   0.52177   0.81531   0.00000  Uiso   1.00
O1785  O     0.74634   0.47834   0.94287   0.00000  Uiso   1.00
O1786  O     0.74389   0.51949   0.56526   0.00000  Uiso   1.00
O1787  O     0.50092   0.68456   0.20067   0.00000  Uiso   1.00
O1788  O     0.50549   0.68301   0.44995   0.00000  Uiso   1.00
O1789  O     0.50104   0.64445   0.07325   0.00000  Uiso   1.00
O1790  O     0.50559   0.68979   0.94806   0.00000  Uiso   1.00
O1791  O     0.50202   0.69221   0.69933   0.00000  Uiso   1.00
O1792  O     0.99834   0.02548   0.44107   0.00000  Uiso   1.00
O1793  O     0.99370   0.02471   0.19287   0.00000  Uiso   1.00
O1794  O     0.75686   0.14619   0.93728   0.00000  Uiso   1.00
O1795  O     0.75594   0.14339   0.68790   0.00000  Uiso   1.00
O1796  O     0.99633   0.02128   0.69373   0.00000  Uiso   1.00
O1797  O     0.75027   0.18825   0.81432   0.00000  Uiso   1.00
O1798  O     0.75044   0.19042   0.56336   0.00000  Uiso   1.00
O1799  O     0.99263   0.31042   0.31635   0.00000  Uiso   1.00
O1800  O     0.98828   0.31426   0.06456   0.00000  Uiso   1.00
O1801  O     0.99353   0.35495   0.19226   0.00000  Uiso   1.00
O1802  O     0.99495   0.31006   0.56674   0.00000  Uiso   1.00
O1803  O     0.99081   0.31266   0.81801   0.00000  Uiso   1.00
O1804  O     0.99687   0.35717   0.94191   0.00000  Uiso   1.00
O1805  O     0.99254   0.35698   0.69280   0.00000  Uiso   1.00
O1806  O     0.75684   0.48103   0.69215   0.00000  Uiso   1.00
O1807  O     0.99931   0.68898   0.43886   0.00000  Uiso   1.00
O1808  O     0.99808   0.64336   0.06071   0.00000  Uiso   1.00
O1809  O     0.99872   0.64341   0.31558   0.00000  Uiso   1.00
O1810  O     0.99544   0.64494   0.56641   0.00000  Uiso   1.00
O1811  O     0.99314   0.64909   0.81215   0.00000  Uiso   1.00
O1812  O     0.99588   0.68758   0.68767   0.00000  Uiso   1.00
O1813  O     0.98648   0.98409   0.31603   0.00000  Uiso   1.00
O1814  O     0.75759   0.81502   0.44322   0.00000  Uiso   1.00
O1815  O     0.99141   0.97953   0.07125   0.00000  Uiso   1.00
O1816  O     0.76200   0.81242   0.18837   0.00000  Uiso   1.00
O1817  O     0.75889   0.85749   0.06260   0.00000  Uiso   1.00
O1818  O     0.75280   0.85492   0.31690   0.00000  Uiso   1.00
O1819  O     0.99357   0.97733   0.81928   0.00000  Uiso   1.00
O1820  O     0.75118   0.85711   0.81321   0.00000  Uiso   1.00
O1821  O     0.75890   0.85435   0.56938   0.00000  Uiso   1.00
O1822  O     0.76100   0.81493   0.69074   0.00000  Uiso   1.00
O1823  O     0.76081   0.81581   0.93841   0.00000  Uiso   1.00
O1824  O     0.99227   0.98244   0.56508   0.00000  Uiso   1.00
