data_final_LOQLEJ_manual-2BMIM-BF4
_audit_creation_date              2023-02-19
_audit_creation_method            'Materials Studio'
_symmetry_space_group_name_H-M    'P1'
_symmetry_Int_Tables_number       1
_symmetry_cell_setting            triclinic
loop_
_symmetry_equiv_pos_as_xyz
  x,y,z
_cell_length_a                    27.6947
_cell_length_b                    41.6554
_cell_length_c                    41.6554
_cell_angle_alpha                 119.9520
_cell_angle_beta                  90.0000
_cell_angle_gamma                 90.0000
loop_
_atom_site_label
_atom_site_type_symbol
_atom_site_fract_x
_atom_site_fract_y
_atom_site_fract_z
_atom_site_U_iso_or_equiv
_atom_site_adp_type
_atom_site_occupancy
In1    In    0.26050   0.00288   0.23866   0.00000  Uiso   1.00
In2    In    0.13614   0.00402   0.23882   0.00000  Uiso   1.00
In3    In    0.00968   0.00121   0.23883   0.00000  Uiso   1.00
In4    In    0.00698   0.22098   0.52058   0.00000  Uiso   1.00
In5    In    0.13373   0.22347   0.52128   0.00000  Uiso   1.00
In6    In    0.38471   0.22360   0.51875   0.00000  Uiso   1.00
In7    In    0.26089   0.22284   0.51709   0.00000  Uiso   1.00
In8    In    0.38255   0.01657   0.73277   0.00000  Uiso   1.00
In9    In    0.13260   0.02188   0.73750   0.00000  Uiso   1.00
In10   In    0.25849   0.01792   0.73588   0.00000  Uiso   1.00
In11   In    0.01164   0.02004   0.73327   0.00000  Uiso   1.00
In12   In    0.38845   0.01569   0.99156   0.00000  Uiso   1.00
In13   In    0.26393   0.01855   0.99440   0.00000  Uiso   1.00
In14   In    0.01441   0.02090   0.99333   0.00000  Uiso   1.00
In15   In    0.13829   0.01996   0.99400   0.00000  Uiso   1.00
In16   In    0.38287   0.45964   0.48083   0.00000  Uiso   1.00
In17   In    0.13345   0.45824   0.48114   0.00000  Uiso   1.00
In18   In    0.00949   0.45829   0.48305   0.00000  Uiso   1.00
In19   In    0.25756   0.46138   0.48138   0.00000  Uiso   1.00
In20   In    0.25900   0.47495   0.74287   0.00000  Uiso   1.00
In21   In    0.13338   0.47667   0.74422   0.00000  Uiso   1.00
In22   In    0.38474   0.47809   0.74446   0.00000  Uiso   1.00
In23   In    0.00997   0.47516   0.74551   0.00000  Uiso   1.00
In24   In    0.01047   0.26146   0.99306   0.00000  Uiso   1.00
In25   In    0.13184   0.25976   0.99259   0.00000  Uiso   1.00
In26   In    0.38443   0.25959   0.99346   0.00000  Uiso   1.00
In27   In    0.25880   0.26181   0.99433   0.00000  Uiso   1.00
In28   In    0.26197   0.53637   0.02863   0.00000  Uiso   1.00
In29   In    0.13612   0.53711   0.02721   0.00000  Uiso   1.00
In30   In    0.38540   0.53970   0.03332   0.00000  Uiso   1.00
In31   In    0.01041   0.54026   0.02897   0.00000  Uiso   1.00
In32   In    0.38192   0.51545   0.25531   0.00000  Uiso   1.00
In33   In    0.25495   0.51946   0.25843   0.00000  Uiso   1.00
In34   In    0.12993   0.51678   0.25770   0.00000  Uiso   1.00
In35   In    0.00444   0.51839   0.25899   0.00000  Uiso   1.00
In36   In    0.13450   0.73741   0.54791   0.00000  Uiso   1.00
In37   In    0.38777   0.74004   0.54551   0.00000  Uiso   1.00
In38   In    0.01174   0.73959   0.54594   0.00000  Uiso   1.00
In39   In    0.25845   0.74039   0.54722   0.00000  Uiso   1.00
In40   In    0.38811   0.74859   0.97005   0.00000  Uiso   1.00
In41   In    0.26368   0.74920   0.97476   0.00000  Uiso   1.00
In42   In    0.38409   0.99745   0.23807   0.00000  Uiso   1.00
In43   In    0.13886   0.93114   0.44540   0.00000  Uiso   1.00
In44   In    0.01947   0.93417   0.44794   0.00000  Uiso   1.00
In45   In    0.26232   0.93867   0.45131   0.00000  Uiso   1.00
In46   In    0.38359   0.93573   0.44951   0.00000  Uiso   1.00
In47   In    0.14044   0.75061   0.97327   0.00000  Uiso   1.00
In48   In    0.01390   0.75424   0.97202   0.00000  Uiso   1.00
In49   In    0.75750   0.00261   0.24027   0.00000  Uiso   1.00
In50   In    0.63328   0.00151   0.23961   0.00000  Uiso   1.00
In51   In    0.88562   0.00063   0.24063   0.00000  Uiso   1.00
In52   In    0.63288   0.22086   0.52465   0.00000  Uiso   1.00
In53   In    0.50871   0.22271   0.52032   0.00000  Uiso   1.00
In54   In    0.88195   0.22144   0.52493   0.00000  Uiso   1.00
In55   In    0.75625   0.22153   0.52394   0.00000  Uiso   1.00
In56   In    0.76362   0.02070   0.73680   0.00000  Uiso   1.00
In57   In    0.88830   0.02170   0.73608   0.00000  Uiso   1.00
In58   In    0.63505   0.02074   0.73823   0.00000  Uiso   1.00
In59   In    0.50875   0.01699   0.73434   0.00000  Uiso   1.00
In60   In    0.51436   0.01716   0.99444   0.00000  Uiso   1.00
In61   In    0.63922   0.01291   0.99221   0.00000  Uiso   1.00
In62   In    0.76752   0.01564   0.99600   0.00000  Uiso   1.00
In63   In    0.88736   0.02039   0.99545   0.00000  Uiso   1.00
In64   In    0.63512   0.45784   0.48081   0.00000  Uiso   1.00
In65   In    0.50853   0.45771   0.48126   0.00000  Uiso   1.00
In66   In    0.88384   0.45995   0.48365   0.00000  Uiso   1.00
In67   In    0.76249   0.45912   0.48200   0.00000  Uiso   1.00
In68   In    0.88517   0.47260   0.74098   0.00000  Uiso   1.00
In69   In    0.76042   0.47078   0.74245   0.00000  Uiso   1.00
In70   In    0.63536   0.47014   0.74296   0.00000  Uiso   1.00
In71   In    0.50800   0.47525   0.74586   0.00000  Uiso   1.00
In72   In    0.50976   0.26053   0.99522   0.00000  Uiso   1.00
In73   In    0.63505   0.25938   0.99711   0.00000  Uiso   1.00
In74   In    0.88648   0.26281   0.99284   0.00000  Uiso   1.00
In75   In    0.76073   0.26536   0.99542   0.00000  Uiso   1.00
In76   In    0.76377   0.53967   0.02990   0.00000  Uiso   1.00
In77   In    0.88743   0.54480   0.03640   0.00000  Uiso   1.00
In78   In    0.63940   0.53909   0.02895   0.00000  Uiso   1.00
In79   In    0.51304   0.53815   0.03224   0.00000  Uiso   1.00
In80   In    0.87974   0.51558   0.25884   0.00000  Uiso   1.00
In81   In    0.62742   0.51478   0.25850   0.00000  Uiso   1.00
In82   In    0.75449   0.51848   0.26080   0.00000  Uiso   1.00
In83   In    0.50547   0.51937   0.26048   0.00000  Uiso   1.00
In84   In    0.51532   0.74173   0.54468   0.00000  Uiso   1.00
In85   In    0.63940   0.74082   0.54274   0.00000  Uiso   1.00
In86   In    0.76518   0.73867   0.54587   0.00000  Uiso   1.00
In87   In    0.88709   0.73904   0.54637   0.00000  Uiso   1.00
In88   In    0.51512   0.74726   0.96762   0.00000  Uiso   1.00
In89   In    0.50970   0.99705   0.23828   0.00000  Uiso   1.00
In90   In    0.63895   0.93046   0.44655   0.00000  Uiso   1.00
In91   In    0.76663   0.93454   0.44737   0.00000  Uiso   1.00
In92   In    0.89233   0.93074   0.44545   0.00000  Uiso   1.00
In93   In    0.51233   0.93384   0.44703   0.00000  Uiso   1.00
In94   In    0.88816   0.75327   0.97217   0.00000  Uiso   1.00
In95   In    0.76511   0.75363   0.97217   0.00000  Uiso   1.00
In96   In    0.63845   0.75037   0.97325   0.00000  Uiso   1.00
H97    H     0.37035   0.13490   0.04417   0.00000  Uiso   1.00
H98    H     0.15084   0.05195   0.11106   0.00000  Uiso   1.00
H99    H     0.12544   0.20145   0.06515   0.00000  Uiso   1.00
H100   H     0.41101   0.04322   0.10758   0.00000  Uiso   1.00
H101   H     0.14886   0.04727   0.16683   0.00000  Uiso   1.00
H102   H     0.02448   0.19649   0.04570   0.00000  Uiso   1.00
H103   H     0.25382   0.04223   0.10332   0.00000  Uiso   1.00
H104   H     0.12989   0.13743   0.05707   0.00000  Uiso   1.00
H105   H     0.27639   0.18310   0.02563   0.00000  Uiso   1.00
H106   H     0.36870   0.18736   0.03558   0.00000  Uiso   1.00
H107   H     0.02169   0.13869   0.05093   0.00000  Uiso   1.00
H108   H     0.28224   0.13155   0.03546   0.00000  Uiso   1.00
H109   H     0.40655   0.03264   0.15964   0.00000  Uiso   1.00
H110   H     0.25243   0.03378   0.15764   0.00000  Uiso   1.00
H111   H     0.49734   0.04834   0.16598   0.00000  Uiso   1.00
H112   H     0.25942   0.11720   0.33219   0.00000  Uiso   1.00
H113   H     0.14236   0.07888   0.35300   0.00000  Uiso   1.00
H114   H     0.19556   0.04884   0.24630   0.00000  Uiso   1.00
H115   H     0.39788   0.08502   0.34584   0.00000  Uiso   1.00
H116   H     0.44409   0.04599   0.25570   0.00000  Uiso   1.00
H117   H     0.49132   0.09836   0.34325   0.00000  Uiso   1.00
H118   H     0.25303   0.16237   0.39804   0.00000  Uiso   1.00
H119   H     0.12128   0.11223   0.49832   0.00000  Uiso   1.00
H120   H     0.11606   0.05011   0.48548   0.00000  Uiso   1.00
H121   H     0.44838   0.22856   0.48132   0.00000  Uiso   1.00
H122   H     0.02658   0.11473   0.51201   0.00000  Uiso   1.00
H123   H     0.19299   0.22335   0.48037   0.00000  Uiso   1.00
H124   H     0.02615   0.05417   0.50092   0.00000  Uiso   1.00
H125   H     0.49223   0.15181   0.41004   0.00000  Uiso   1.00
H126   H     0.36478   0.11668   0.50898   0.00000  Uiso   1.00
H127   H     0.36718   0.05088   0.48705   0.00000  Uiso   1.00
H128   H     0.27456   0.11594   0.51133   0.00000  Uiso   1.00
H129   H     0.27516   0.04547   0.48416   0.00000  Uiso   1.00
H130   H     0.07356   0.20826   0.55601   0.00000  Uiso   1.00
H131   H     0.31584   0.21684   0.55966   0.00000  Uiso   1.00
H132   H     0.39951   0.13323   0.41081   0.00000  Uiso   1.00
H133   H     0.13989   0.12225   0.41858   0.00000  Uiso   1.00
H134   H     0.24361   0.00289   0.56773   0.00000  Uiso   1.00
H135   H     0.00044   0.15851   0.40489   0.00000  Uiso   1.00
H136   H     0.00975   0.00317   0.56395   0.00000  Uiso   1.00
H137   H     0.00295   0.02763   0.63078   0.00000  Uiso   1.00
H138   H     0.19879   0.05519   0.72964   0.00000  Uiso   1.00
H139   H     0.44439   0.05796   0.73010   0.00000  Uiso   1.00
H140   H     0.39966   0.02147   0.63643   0.00000  Uiso   1.00
H141   H     0.24067   0.01881   0.63304   0.00000  Uiso   1.00
H142   H     0.49766   0.00034   0.62674   0.00000  Uiso   1.00
H143   H     0.15101   0.19411   0.87413   0.00000  Uiso   1.00
H144   H     0.24402   0.18936   0.87720   0.00000  Uiso   1.00
H145   H     0.20222   0.21554   0.95724   0.00000  Uiso   1.00
H146   H     0.49787   0.11428   0.83722   0.00000  Uiso   1.00
H147   H     0.03055   0.05295   0.85132   0.00000  Uiso   1.00
H148   H     0.40103   0.19297   0.87618   0.00000  Uiso   1.00
H149   H     0.45015   0.21287   0.95460   0.00000  Uiso   1.00
H150   H     0.07644   0.05225   0.97486   0.00000  Uiso   1.00
H151   H     0.12717   0.04566   0.90899   0.00000  Uiso   1.00
H152   H     0.27954   0.02611   0.83746   0.00000  Uiso   1.00
H153   H     0.24820   0.13240   0.82000   0.00000  Uiso   1.00
H154   H     0.40000   0.13155   0.81705   0.00000  Uiso   1.00
H155   H     0.02861   0.04097   0.90335   0.00000  Uiso   1.00
H156   H     0.37779   0.00679   0.82803   0.00000  Uiso   1.00
H157   H     0.33067   0.04802   0.97587   0.00000  Uiso   1.00
H158   H     0.07279   0.21282   0.97740   0.00000  Uiso   1.00
H159   H     0.12108   0.04702   0.85204   0.00000  Uiso   1.00
H160   H     0.14724   0.13757   0.81435   0.00000  Uiso   1.00
H161   H     0.28238   0.02365   0.89521   0.00000  Uiso   1.00
H162   H     0.32044   0.21458   0.98210   0.00000  Uiso   1.00
H163   H     0.37515   0.00697   0.88457   0.00000  Uiso   1.00
H164   H     0.12336   0.40608   0.16798   0.00000  Uiso   1.00
H165   H     0.02653   0.41615   0.15842   0.00000  Uiso   1.00
H166   H     0.12359   0.34668   0.10663   0.00000  Uiso   1.00
H167   H     0.02549   0.36660   0.09578   0.00000  Uiso   1.00
H168   H     0.36830   0.41259   0.15956   0.00000  Uiso   1.00
H169   H     0.27003   0.37272   0.08857   0.00000  Uiso   1.00
H170   H     0.26991   0.42469   0.14941   0.00000  Uiso   1.00
H171   H     0.36879   0.35490   0.09539   0.00000  Uiso   1.00
H172   H     0.39963   0.43252   0.02262   0.00000  Uiso   1.00
H173   H     0.14930   0.42688   0.00495   0.00000  Uiso   1.00
H174   H     0.24593   0.43660   0.03174   0.00000  Uiso   1.00
H175   H     0.24668   0.36774   0.00742   0.00000  Uiso   1.00
H176   H     0.40207   0.37132   0.01492   0.00000  Uiso   1.00
H177   H     0.11782   0.48930   0.34205   0.00000  Uiso   1.00
H178   H     0.06891   0.47525   0.24885   0.00000  Uiso   1.00
H179   H     0.02452   0.46700   0.32802   0.00000  Uiso   1.00
H180   H     0.31463   0.47407   0.25630   0.00000  Uiso   1.00
H181   H     0.37702   0.44319   0.37205   0.00000  Uiso   1.00
H182   H     0.12123   0.47843   0.39424   0.00000  Uiso   1.00
H183   H     0.26853   0.44572   0.36883   0.00000  Uiso   1.00
H184   H     0.36609   0.46703   0.32840   0.00000  Uiso   1.00
H185   H     0.02433   0.44521   0.37100   0.00000  Uiso   1.00
H186   H     0.27063   0.46847   0.32512   0.00000  Uiso   1.00
H187   H     0.24756   0.30005   0.48300   0.00000  Uiso   1.00
H188   H     0.24207   0.35229   0.47176   0.00000  Uiso   1.00
H189   H     0.14571   0.30248   0.48934   0.00000  Uiso   1.00
H190   H     0.14472   0.35208   0.47589   0.00000  Uiso   1.00
H191   H     0.19282   0.42991   0.50096   0.00000  Uiso   1.00
H192   H     0.06933   0.48567   0.46238   0.00000  Uiso   1.00
H193   H     0.31948   0.48611   0.46245   0.00000  Uiso   1.00
H194   H     0.40055   0.30379   0.48149   0.00000  Uiso   1.00
H195   H     0.39554   0.35877   0.47311   0.00000  Uiso   1.00
H196   H     0.49998   0.29887   0.48089   0.00000  Uiso   1.00
H197   H     0.44602   0.42930   0.49942   0.00000  Uiso   1.00
H198   H     0.14919   0.47906   0.59011   0.00000  Uiso   1.00
H199   H     0.49545   0.49530   0.59676   0.00000  Uiso   1.00
H200   H     0.24272   0.49104   0.59231   0.00000  Uiso   1.00
H201   H     0.11687   0.35427   0.68654   0.00000  Uiso   1.00
H202   H     0.12304   0.29492   0.63621   0.00000  Uiso   1.00
H203   H     0.06923   0.43263   0.71050   0.00000  Uiso   1.00
H204   H     0.03245   0.35595   0.68307   0.00000  Uiso   1.00
H205   H     0.36796   0.35849   0.68281   0.00000  Uiso   1.00
H206   H     0.27680   0.30287   0.63158   0.00000  Uiso   1.00
H207   H     0.27228   0.36394   0.68673   0.00000  Uiso   1.00
H208   H     0.37147   0.29442   0.63309   0.00000  Uiso   1.00
H209   H     0.31941   0.45272   0.76584   0.00000  Uiso   1.00
H210   H     0.02493   0.29632   0.62909   0.00000  Uiso   1.00
H211   H     0.49533   0.49199   0.65500   0.00000  Uiso   1.00
H212   H     0.14914   0.48548   0.65099   0.00000  Uiso   1.00
H213   H     0.24344   0.48927   0.65028   0.00000  Uiso   1.00
H214   H     0.27940   0.49594   0.85368   0.00000  Uiso   1.00
H215   H     0.36630   0.49855   0.85945   0.00000  Uiso   1.00
H216   H     0.01892   0.48950   0.85245   0.00000  Uiso   1.00
H217   H     0.15065   0.36478   0.99615   0.00000  Uiso   1.00
H218   H     0.27320   0.64635   0.05269   0.00000  Uiso   1.00
H219   H     0.15185   0.58472   0.15011   0.00000  Uiso   1.00
H220   H     0.12190   0.70317   0.04165   0.00000  Uiso   1.00
H221   H     0.23802   0.59007   0.14727   0.00000  Uiso   1.00
H222   H     0.23928   0.57861   0.19962   0.00000  Uiso   1.00
H223   H     0.37481   0.68723   0.02266   0.00000  Uiso   1.00
H224   H     0.19570   0.51482   0.05499   0.00000  Uiso   1.00
H225   H     0.49571   0.57597   0.14003   0.00000  Uiso   1.00
H226   H     0.11471   0.65534   0.06126   0.00000  Uiso   1.00
H227   H     0.39521   0.58859   0.14724   0.00000  Uiso   1.00
H228   H     0.02628   0.69685   0.02999   0.00000  Uiso   1.00
H229   H     0.44939   0.53133   0.06846   0.00000  Uiso   1.00
H230   H     0.02783   0.65372   0.05321   0.00000  Uiso   1.00
H231   H     0.37741   0.64125   0.04215   0.00000  Uiso   1.00
H232   H     0.27556   0.69454   0.03680   0.00000  Uiso   1.00
H233   H     0.49370   0.57117   0.19651   0.00000  Uiso   1.00
H234   H     0.39460   0.56841   0.19101   0.00000  Uiso   1.00
H235   H     0.24279   0.60821   0.37368   0.00000  Uiso   1.00
H236   H     0.13968   0.58342   0.37607   0.00000  Uiso   1.00
H237   H     0.19185   0.56647   0.28107   0.00000  Uiso   1.00
H238   H     0.39974   0.59486   0.37478   0.00000  Uiso   1.00
H239   H     0.44040   0.56446   0.27957   0.00000  Uiso   1.00
H240   H     0.48933   0.59602   0.37858   0.00000  Uiso   1.00
H241   H     0.14650   0.57723   0.20346   0.00000  Uiso   1.00
H242   H     0.45299   0.73135   0.50159   0.00000  Uiso   1.00
H243   H     0.14102   0.62995   0.44230   0.00000  Uiso   1.00
H244   H     0.02093   0.64107   0.54874   0.00000  Uiso   1.00
H245   H     0.11720   0.64528   0.55741   0.00000  Uiso   1.00
H246   H     0.11585   0.58246   0.54169   0.00000  Uiso   1.00
H247   H     0.07166   0.73948   0.58929   0.00000  Uiso   1.00
H248   H     0.49556   0.64733   0.44025   0.00000  Uiso   1.00
H249   H     0.24183   0.64808   0.43880   0.00000  Uiso   1.00
H250   H     0.39757   0.63780   0.43956   0.00000  Uiso   1.00
H251   H     0.02349   0.57462   0.53107   0.00000  Uiso   1.00
H252   H     0.38398   0.64838   0.56538   0.00000  Uiso   1.00
H253   H     0.37075   0.58724   0.54671   0.00000  Uiso   1.00
H254   H     0.27437   0.64285   0.55887   0.00000  Uiso   1.00
H255   H     0.27379   0.57634   0.53450   0.00000  Uiso   1.00
H256   H     0.32207   0.73905   0.58846   0.00000  Uiso   1.00
H257   H     0.19250   0.72759   0.50595   0.00000  Uiso   1.00
H258   H     0.39582   0.50574   0.59903   0.00000  Uiso   1.00
H259   H     0.19891   0.51191   0.73414   0.00000  Uiso   1.00
H260   H     0.45017   0.51171   0.74066   0.00000  Uiso   1.00
H261   H     0.39812   0.50381   0.65401   0.00000  Uiso   1.00
H262   H     0.07310   0.52138   0.97779   0.00000  Uiso   1.00
H263   H     0.14683   0.64889   0.87931   0.00000  Uiso   1.00
H264   H     0.14822   0.58708   0.83314   0.00000  Uiso   1.00
H265   H     0.24390   0.65588   0.86283   0.00000  Uiso   1.00
H266   H     0.44844   0.73976   0.92326   0.00000  Uiso   1.00
H267   H     0.39827   0.65282   0.86742   0.00000  Uiso   1.00
H268   H     0.37354   0.51349   0.92507   0.00000  Uiso   1.00
H269   H     0.24155   0.59193   0.81580   0.00000  Uiso   1.00
H270   H     0.01977   0.50887   0.91802   0.00000  Uiso   1.00
H271   H     0.12505   0.51019   0.85806   0.00000  Uiso   1.00
H272   H     0.32783   0.71031   0.98417   0.00000  Uiso   1.00
H273   H     0.12352   0.51495   0.91980   0.00000  Uiso   1.00
H274   H     0.39653   0.58921   0.81040   0.00000  Uiso   1.00
H275   H     0.27949   0.50995   0.91719   0.00000  Uiso   1.00
H276   H     0.20444   0.73843   0.92527   0.00000  Uiso   1.00
H277   H     0.32199   0.55726   0.99911   0.00000  Uiso   1.00
H278   H     0.02860   0.85993   0.06737   0.00000  Uiso   1.00
H279   H     0.12666   0.92596   0.11682   0.00000  Uiso   1.00
H280   H     0.02655   0.91612   0.12726   0.00000  Uiso   1.00
H281   H     0.12595   0.86880   0.06047   0.00000  Uiso   1.00
H282   H     0.36983   0.89913   0.12917   0.00000  Uiso   1.00
H283   H     0.28121   0.85688   0.07376   0.00000  Uiso   1.00
H284   H     0.27526   0.91162   0.13486   0.00000  Uiso   1.00
H285   H     0.37351   0.84796   0.06625   0.00000  Uiso   1.00
H286   H     0.07947   0.75955   0.01967   0.00000  Uiso   1.00
H287   H     0.45028   0.99090   0.01272   0.00000  Uiso   1.00
H288   H     0.19614   0.99536   0.01792   0.00000  Uiso   1.00
H289   H     0.12113   0.93191   0.34811   0.00000  Uiso   1.00
H290   H     0.02864   0.92709   0.28523   0.00000  Uiso   1.00
H291   H     0.06968   0.95349   0.21428   0.00000  Uiso   1.00
H292   H     0.36787   0.92282   0.34669   0.00000  Uiso   1.00
H293   H     0.11607   0.95305   0.30376   0.00000  Uiso   1.00
H294   H     0.26999   0.93110   0.28260   0.00000  Uiso   1.00
H295   H     0.32014   0.95388   0.22669   0.00000  Uiso   1.00
H296   H     0.27417   0.92012   0.33319   0.00000  Uiso   1.00
H297   H     0.36607   0.93572   0.29496   0.00000  Uiso   1.00
H298   H     0.02676   0.90619   0.32918   0.00000  Uiso   1.00
H299   H     0.25344   0.79100   0.47588   0.00000  Uiso   1.00
H300   H     0.24769   0.83500   0.45692   0.00000  Uiso   1.00
H301   H     0.15321   0.80699   0.49927   0.00000  Uiso   1.00
H302   H     0.15568   0.84335   0.47145   0.00000  Uiso   1.00
H303   H     0.49908   0.98216   0.56406   0.00000  Uiso   1.00
H304   H     0.08388   0.94830   0.41559   0.00000  Uiso   1.00
H305   H     0.38922   0.83528   0.52871   0.00000  Uiso   1.00
H306   H     0.38455   0.87723   0.50471   0.00000  Uiso   1.00
H307   H     0.49748   0.83818   0.45824   0.00000  Uiso   1.00
H308   H     0.45221   0.91317   0.47461   0.00000  Uiso   1.00
H309   H     0.20587   0.88517   0.42108   0.00000  Uiso   1.00
H310   H     0.32566   0.95709   0.42267   0.00000  Uiso   1.00
H311   H     0.39867   0.99250   0.56987   0.00000  Uiso   1.00
H312   H     0.15734   0.97420   0.56620   0.00000  Uiso   1.00
H313   H     0.11400   0.89873   0.68437   0.00000  Uiso   1.00
H314   H     0.02337   0.84044   0.63884   0.00000  Uiso   1.00
H315   H     0.11499   0.83217   0.64349   0.00000  Uiso   1.00
H316   H     0.02530   0.90499   0.69022   0.00000  Uiso   1.00
H317   H     0.36844   0.90197   0.67259   0.00000  Uiso   1.00
H318   H     0.27662   0.83900   0.65484   0.00000  Uiso   1.00
H319   H     0.27121   0.90225   0.68895   0.00000  Uiso   1.00
H320   H     0.36967   0.83726   0.63678   0.00000  Uiso   1.00
H321   H     0.07353   0.99152   0.75637   0.00000  Uiso   1.00
H322   H     0.31873   0.97915   0.73947   0.00000  Uiso   1.00
H323   H     0.14940   0.99560   0.62984   0.00000  Uiso   1.00
H324   H     0.00216   0.84414   0.95067   0.00000  Uiso   1.00
H325   H     0.39874   0.85176   0.97816   0.00000  Uiso   1.00
H326   H     0.15985   0.84687   0.95556   0.00000  Uiso   1.00
H327   H     0.24322   0.84233   0.95605   0.00000  Uiso   1.00
H328   H     0.24425   0.90262   0.96314   0.00000  Uiso   1.00
H329   H     0.39962   0.91011   0.97886   0.00000  Uiso   1.00
H330   H     0.00240   0.90115   0.95462   0.00000  Uiso   1.00
H331   H     0.49753   0.83828   0.94806   0.00000  Uiso   1.00
H332   H     0.49514   0.90216   0.95503   0.00000  Uiso   1.00
H333   H     0.16161   0.90895   0.96915   0.00000  Uiso   1.00
H334   H     0.52493   0.19313   0.04336   0.00000  Uiso   1.00
H335   H     0.65739   0.02474   0.10083   0.00000  Uiso   1.00
H336   H     0.75127   0.05560   0.17297   0.00000  Uiso   1.00
H337   H     0.86962   0.13831   0.04741   0.00000  Uiso   1.00
H338   H     0.65095   0.02004   0.15449   0.00000  Uiso   1.00
H339   H     0.75719   0.06360   0.11670   0.00000  Uiso   1.00
H340   H     0.62722   0.18794   0.04116   0.00000  Uiso   1.00
H341   H     0.52689   0.13662   0.04702   0.00000  Uiso   1.00
H342   H     0.90501   0.02377   0.09999   0.00000  Uiso   1.00
H343   H     0.87015   0.19328   0.03874   0.00000  Uiso   1.00
H344   H     0.78477   0.18040   0.02602   0.00000  Uiso   1.00
H345   H     0.78020   0.12071   0.02109   0.00000  Uiso   1.00
H346   H     0.62820   0.12852   0.03958   0.00000  Uiso   1.00
H347   H     0.90111   0.02457   0.15846   0.00000  Uiso   1.00
H348   H     0.99369   0.03333   0.15522   0.00000  Uiso   1.00
H349   H     0.99366   0.04129   0.10190   0.00000  Uiso   1.00
H350   H     0.50860   0.05923   0.11491   0.00000  Uiso   1.00
H351   H     0.73754   0.08888   0.34937   0.00000  Uiso   1.00
H352   H     0.64756   0.09530   0.34228   0.00000  Uiso   1.00
H353   H     0.69769   0.04790   0.25226   0.00000  Uiso   1.00
H354   H     0.99967   0.11664   0.33846   0.00000  Uiso   1.00
H355   H     0.88877   0.10208   0.34394   0.00000  Uiso   1.00
H356   H     0.94001   0.04880   0.25070   0.00000  Uiso   1.00
H357   H     0.52242   0.05353   0.49306   0.00000  Uiso   1.00
H358   H     0.62224   0.10480   0.48824   0.00000  Uiso   1.00
H359   H     0.62606   0.03921   0.47140   0.00000  Uiso   1.00
H360   H     0.64853   0.14038   0.40764   0.00000  Uiso   1.00
H361   H     0.73834   0.13799   0.41500   0.00000  Uiso   1.00
H362   H     0.52188   0.11671   0.50804   0.00000  Uiso   1.00
H363   H     0.94318   0.22475   0.48167   0.00000  Uiso   1.00
H364   H     0.87033   0.11130   0.51056   0.00000  Uiso   1.00
H365   H     0.87332   0.04815   0.49375   0.00000  Uiso   1.00
H366   H     0.76674   0.12035   0.52585   0.00000  Uiso   1.00
H367   H     0.77232   0.05325   0.50708   0.00000  Uiso   1.00
H368   H     0.56867   0.20414   0.55091   0.00000  Uiso   1.00
H369   H     0.81852   0.20217   0.55014   0.00000  Uiso   1.00
H370   H     0.89365   0.14711   0.40997   0.00000  Uiso   1.00
H371   H     0.65201   0.00038   0.56553   0.00000  Uiso   1.00
H372   H     0.69463   0.06244   0.73403   0.00000  Uiso   1.00
H373   H     0.74961   0.00369   0.62810   0.00000  Uiso   1.00
H374   H     0.94409   0.05452   0.72211   0.00000  Uiso   1.00
H375   H     0.90482   0.01503   0.62974   0.00000  Uiso   1.00
H376   H     0.65473   0.01787   0.63466   0.00000  Uiso   1.00
H377   H     0.63396   0.19948   0.86781   0.00000  Uiso   1.00
H378   H     0.74250   0.19780   0.87839   0.00000  Uiso   1.00
H379   H     0.69479   0.22156   0.95382   0.00000  Uiso   1.00
H380   H     0.90091   0.19405   0.87440   0.00000  Uiso   1.00
H381   H     0.89985   0.13636   0.82418   0.00000  Uiso   1.00
H382   H     0.52541   0.04418   0.84476   0.00000  Uiso   1.00
H383   H     0.95181   0.21758   0.95401   0.00000  Uiso   1.00
H384   H     0.62161   0.01133   0.83462   0.00000  Uiso   1.00
H385   H     0.74097   0.13455   0.82053   0.00000  Uiso   1.00
H386   H     0.99353   0.19240   0.87296   0.00000  Uiso   1.00
H387   H     0.78123   0.03236   0.84556   0.00000  Uiso   1.00
H388   H     0.57648   0.05267   0.98413   0.00000  Uiso   1.00
H389   H     0.77909   0.02747   0.90043   0.00000  Uiso   1.00
H390   H     0.63062   0.14315   0.80580   0.00000  Uiso   1.00
H391   H     0.82296   0.05346   0.98650   0.00000  Uiso   1.00
H392   H     0.52970   0.03418   0.90128   0.00000  Uiso   1.00
H393   H     0.87347   0.04005   0.84599   0.00000  Uiso   1.00
H394   H     0.87416   0.03567   0.90127   0.00000  Uiso   1.00
H395   H     0.82475   0.21993   0.98650   0.00000  Uiso   1.00
H396   H     0.56849   0.21548   0.99573   0.00000  Uiso   1.00
H397   H     0.99496   0.13136   0.81718   0.00000  Uiso   1.00
H398   H     0.62192   0.01160   0.88955   0.00000  Uiso   1.00
H399   H     0.50205   0.16434   0.89396   0.00000  Uiso   1.00
H400   H     0.61437   0.41345   0.15878   0.00000  Uiso   1.00
H401   H     0.61776   0.35368   0.09869   0.00000  Uiso   1.00
H402   H     0.50156   0.37992   0.03378   0.00000  Uiso   1.00
H403   H     0.86865   0.41849   0.15697   0.00000  Uiso   1.00
H404   H     0.77458   0.36184   0.09922   0.00000  Uiso   1.00
H405   H     0.77065   0.41616   0.16145   0.00000  Uiso   1.00
H406   H     0.86874   0.36402   0.09432   0.00000  Uiso   1.00
H407   H     0.52162   0.40753   0.16638   0.00000  Uiso   1.00
H408   H     0.52265   0.35061   0.10395   0.00000  Uiso   1.00
H409   H     0.90959   0.43379   0.01956   0.00000  Uiso   1.00
H410   H     0.50167   0.43874   0.04131   0.00000  Uiso   1.00
H411   H     0.90416   0.37078   0.01206   0.00000  Uiso   1.00
H412   H     0.99138   0.42529   0.00474   0.00000  Uiso   1.00
H413   H     0.75162   0.42890   0.00544   0.00000  Uiso   1.00
H414   H     0.56423   0.46718   0.24782   0.00000  Uiso   1.00
H415   H     0.52173   0.48223   0.39684   0.00000  Uiso   1.00
H416   H     0.87131   0.47095   0.39185   0.00000  Uiso   1.00
H417   H     0.87151   0.49266   0.34682   0.00000  Uiso   1.00
H418   H     0.81614   0.46655   0.24396   0.00000  Uiso   1.00
H419   H     0.61945   0.46366   0.38453   0.00000  Uiso   1.00
H420   H     0.77410   0.47514   0.33226   0.00000  Uiso   1.00
H421   H     0.77599   0.46391   0.38381   0.00000  Uiso   1.00
H422   H     0.61770   0.47374   0.33138   0.00000  Uiso   1.00
H423   H     0.52098   0.49472   0.34341   0.00000  Uiso   1.00
H424   H     0.74731   0.30768   0.49705   0.00000  Uiso   1.00
H425   H     0.74459   0.35419   0.48127   0.00000  Uiso   1.00
H426   H     0.65173   0.31724   0.51158   0.00000  Uiso   1.00
H427   H     0.64879   0.36867   0.50046   0.00000  Uiso   1.00
H428   H     0.57006   0.47661   0.45232   0.00000  Uiso   1.00
H429   H     0.69797   0.43417   0.50287   0.00000  Uiso   1.00
H430   H     0.99276   0.36627   0.48953   0.00000  Uiso   1.00
H431   H     0.89899   0.32048   0.51450   0.00000  Uiso   1.00
H432   H     0.90051   0.36473   0.49035   0.00000  Uiso   1.00
H433   H     0.94818   0.43531   0.50657   0.00000  Uiso   1.00
H434   H     0.82528   0.48321   0.45719   0.00000  Uiso   1.00
H435   H     0.69579   0.26401   0.52929   0.00000  Uiso   1.00
H436   H     0.74363   0.49531   0.59610   0.00000  Uiso   1.00
H437   H     0.50080   0.34832   0.46814   0.00000  Uiso   1.00
H438   H     0.65122   0.48859   0.59381   0.00000  Uiso   1.00
H439   H     0.99397   0.32140   0.51371   0.00000  Uiso   1.00
H440   H     0.90035   0.49663   0.59501   0.00000  Uiso   1.00
H441   H     0.62202   0.35562   0.69282   0.00000  Uiso   1.00
H442   H     0.52492   0.29288   0.63673   0.00000  Uiso   1.00
H443   H     0.62037   0.28891   0.64356   0.00000  Uiso   1.00
H444   H     0.56817   0.42227   0.71360   0.00000  Uiso   1.00
H445   H     0.87592   0.35526   0.70085   0.00000  Uiso   1.00
H446   H     0.77843   0.29068   0.64052   0.00000  Uiso   1.00
H447   H     0.77525   0.35493   0.69159   0.00000  Uiso   1.00
H448   H     0.87129   0.29436   0.64649   0.00000  Uiso   1.00
H449   H     0.82568   0.42208   0.70237   0.00000  Uiso   1.00
H450   H     0.52196   0.35660   0.69164   0.00000  Uiso   1.00
H451   H     0.74567   0.49194   0.65326   0.00000  Uiso   1.00
H452   H     0.65165   0.48902   0.65122   0.00000  Uiso   1.00
H453   H     0.99424   0.36323   0.99829   0.00000  Uiso   1.00
H454   H     0.64654   0.36075   0.98900   0.00000  Uiso   1.00
H455   H     0.75257   0.36174   0.99139   0.00000  Uiso   1.00
H456   H     0.62524   0.49423   0.85666   0.00000  Uiso   1.00
H457   H     0.52661   0.49033   0.85066   0.00000  Uiso   1.00
H458   H     0.64511   0.42441   0.99705   0.00000  Uiso   1.00
H459   H     0.65323   0.59067   0.14957   0.00000  Uiso   1.00
H460   H     0.62750   0.65624   0.06176   0.00000  Uiso   1.00
H461   H     0.73985   0.57194   0.13970   0.00000  Uiso   1.00
H462   H     0.78077   0.68276   0.01471   0.00000  Uiso   1.00
H463   H     0.69979   0.51560   0.05492   0.00000  Uiso   1.00
H464   H     0.82946   0.57186   0.01117   0.00000  Uiso   1.00
H465   H     0.78349   0.63977   0.03735   0.00000  Uiso   1.00
H466   H     0.52922   0.69806   0.03428   0.00000  Uiso   1.00
H467   H     0.87258   0.69509   0.02930   0.00000  Uiso   1.00
H468   H     0.87698   0.65029   0.05481   0.00000  Uiso   1.00
H469   H     0.62884   0.70597   0.04593   0.00000  Uiso   1.00
H470   H     0.89537   0.59270   0.15291   0.00000  Uiso   1.00
H471   H     0.99824   0.58270   0.14399   0.00000  Uiso   1.00
H472   H     0.53246   0.64688   0.05089   0.00000  Uiso   1.00
H473   H     0.95245   0.52224   0.06324   0.00000  Uiso   1.00
H474   H     0.99245   0.57904   0.19744   0.00000  Uiso   1.00
H475   H     0.65200   0.57567   0.19976   0.00000  Uiso   1.00
H476   H     0.57833   0.56347   0.00590   0.00000  Uiso   1.00
H477   H     0.75006   0.61577   0.37032   0.00000  Uiso   1.00
H478   H     0.64513   0.58693   0.37447   0.00000  Uiso   1.00
H479   H     0.68920   0.56292   0.27672   0.00000  Uiso   1.00
H480   H     0.89473   0.58480   0.37654   0.00000  Uiso   1.00
H481   H     0.94061   0.56134   0.27508   0.00000  Uiso   1.00
H482   H     0.73701   0.57548   0.20251   0.00000  Uiso   1.00
H483   H     0.99199   0.61385   0.37337   0.00000  Uiso   1.00
H484   H     0.89010   0.58745   0.21176   0.00000  Uiso   1.00
H485   H     0.65086   0.63272   0.43423   0.00000  Uiso   1.00
H486   H     0.62302   0.63540   0.53069   0.00000  Uiso   1.00
H487   H     0.61763   0.57372   0.52563   0.00000  Uiso   1.00
H488   H     0.57738   0.74326   0.58740   0.00000  Uiso   1.00
H489   H     0.70532   0.73306   0.50117   0.00000  Uiso   1.00
H490   H     0.52831   0.56803   0.51963   0.00000  Uiso   1.00
H491   H     0.74960   0.66194   0.43556   0.00000  Uiso   1.00
H492   H     0.94630   0.73219   0.50117   0.00000  Uiso   1.00
H493   H     0.86667   0.64274   0.55152   0.00000  Uiso   1.00
H494   H     0.86514   0.57926   0.53834   0.00000  Uiso   1.00
H495   H     0.77053   0.64294   0.56108   0.00000  Uiso   1.00
H496   H     0.77112   0.57910   0.55080   0.00000  Uiso   1.00
H497   H     0.89632   0.62949   0.44353   0.00000  Uiso   1.00
H498   H     0.53475   0.62867   0.52998   0.00000  Uiso   1.00
H499   H     0.99522   0.65962   0.43913   0.00000  Uiso   1.00
H500   H     0.82435   0.73427   0.58402   0.00000  Uiso   1.00
H501   H     0.94851   0.50816   0.73701   0.00000  Uiso   1.00
H502   H     0.99591   0.51240   0.66274   0.00000  Uiso   1.00
H503   H     0.69283   0.50344   0.73273   0.00000  Uiso   1.00
H504   H     0.99728   0.51130   0.60569   0.00000  Uiso   1.00
H505   H     0.90252   0.50067   0.65746   0.00000  Uiso   1.00
H506   H     0.66027   0.64923   0.86607   0.00000  Uiso   1.00
H507   H     0.74792   0.65522   0.86704   0.00000  Uiso   1.00
H508   H     0.99570   0.59229   0.81409   0.00000  Uiso   1.00
H509   H     0.90421   0.64477   0.87381   0.00000  Uiso   1.00
H510   H     0.65746   0.58183   0.82050   0.00000  Uiso   1.00
H511   H     0.90052   0.57985   0.82380   0.00000  Uiso   1.00
H512   H     0.50346   0.59007   0.82046   0.00000  Uiso   1.00
H513   H     0.52689   0.50527   0.91419   0.00000  Uiso   1.00
H514   H     0.50706   0.65285   0.86742   0.00000  Uiso   1.00
H515   H     0.74686   0.58887   0.81921   0.00000  Uiso   1.00
H516   H     0.78055   0.51381   0.92246   0.00000  Uiso   1.00
H517   H     0.86532   0.51499   0.85996   0.00000  Uiso   1.00
H518   H     0.77847   0.50706   0.86248   0.00000  Uiso   1.00
H519   H     0.86354   0.52233   0.92269   0.00000  Uiso   1.00
H520   H     0.99678   0.66204   0.86684   0.00000  Uiso   1.00
H521   H     0.69791   0.74386   0.92680   0.00000  Uiso   1.00
H522   H     0.95000   0.74038   0.92562   0.00000  Uiso   1.00
H523   H     0.62429   0.50190   0.91730   0.00000  Uiso   1.00
H524   H     0.61760   0.91433   0.12726   0.00000  Uiso   1.00
H525   H     0.62148   0.85899   0.06934   0.00000  Uiso   1.00
H526   H     0.87045   0.91195   0.12528   0.00000  Uiso   1.00
H527   H     0.77664   0.85829   0.07135   0.00000  Uiso   1.00
H528   H     0.77548   0.91765   0.12872   0.00000  Uiso   1.00
H529   H     0.87387   0.85796   0.06357   0.00000  Uiso   1.00
H530   H     0.52605   0.90848   0.13088   0.00000  Uiso   1.00
H531   H     0.52962   0.86023   0.06807   0.00000  Uiso   1.00
H532   H     0.82260   0.76715   0.02239   0.00000  Uiso   1.00
H533   H     0.57320   0.76332   0.01889   0.00000  Uiso   1.00
H534   H     0.95088   0.99273   0.01150   0.00000  Uiso   1.00
H535   H     0.70620   0.99499   0.02093   0.00000  Uiso   1.00
H536   H     0.62314   0.92918   0.34879   0.00000  Uiso   1.00
H537   H     0.77444   0.93612   0.29094   0.00000  Uiso   1.00
H538   H     0.82118   0.95525   0.21592   0.00000  Uiso   1.00
H539   H     0.62039   0.94356   0.29789   0.00000  Uiso   1.00
H540   H     0.87115   0.94022   0.29644   0.00000  Uiso   1.00
H541   H     0.77507   0.92076   0.34014   0.00000  Uiso   1.00
H542   H     0.87457   0.92471   0.34444   0.00000  Uiso   1.00
H543   H     0.51964   0.90725   0.33428   0.00000  Uiso   1.00
H544   H     0.52170   0.92383   0.28610   0.00000  Uiso   1.00
H545   H     0.57277   0.95219   0.22824   0.00000  Uiso   1.00
H546   H     0.74815   0.80427   0.49148   0.00000  Uiso   1.00
H547   H     0.75107   0.84013   0.46033   0.00000  Uiso   1.00
H548   H     0.65262   0.79242   0.47801   0.00000  Uiso   1.00
H549   H     0.64967   0.83266   0.45014   0.00000  Uiso   1.00
H550   H     0.99863   0.80203   0.49326   0.00000  Uiso   1.00
H551   H     0.69921   0.90953   0.47403   0.00000  Uiso   1.00
H552   H     0.90277   0.79995   0.49150   0.00000  Uiso   1.00
H553   H     0.90845   0.83801   0.46460   0.00000  Uiso   1.00
H554   H     0.82907   0.95663   0.42729   0.00000  Uiso   1.00
H555   H     0.95749   0.90380   0.46830   0.00000  Uiso   1.00
H556   H     0.99855   0.83847   0.46334   0.00000  Uiso   1.00
H557   H     0.57612   0.95518   0.42496   0.00000  Uiso   1.00
H558   H     0.90552   0.99756   0.56515   0.00000  Uiso   1.00
H559   H     0.75378   0.98378   0.56190   0.00000  Uiso   1.00
H560   H     0.50020   0.80368   0.49004   0.00000  Uiso   1.00
H561   H     0.62358   0.90381   0.70423   0.00000  Uiso   1.00
H562   H     0.51321   0.89746   0.71030   0.00000  Uiso   1.00
H563   H     0.51442   0.82944   0.67038   0.00000  Uiso   1.00
H564   H     0.62077   0.84114   0.66395   0.00000  Uiso   1.00
H565   H     0.77387   0.83987   0.63851   0.00000  Uiso   1.00
H566   H     0.87169   0.90459   0.69228   0.00000  Uiso   1.00
H567   H     0.77634   0.90553   0.67979   0.00000  Uiso   1.00
H568   H     0.86942   0.83932   0.64993   0.00000  Uiso   1.00
H569   H     0.82624   0.98584   0.74916   0.00000  Uiso   1.00
H570   H     0.57538   0.98845   0.75227   0.00000  Uiso   1.00
H571   H     0.65282   0.84184   0.95041   0.00000  Uiso   1.00
H572   H     0.75107   0.90456   0.96714   0.00000  Uiso   1.00
H573   H     0.90574   0.89919   0.94996   0.00000  Uiso   1.00
H574   H     0.65131   0.90045   0.96061   0.00000  Uiso   1.00
H575   H     0.90540   0.83746   0.94294   0.00000  Uiso   1.00
H576   H     0.74691   0.84230   0.95456   0.00000  Uiso   1.00
C577   C     0.02740   0.04461   0.11694   0.00000  Uiso   1.00
C578   C     0.02729   0.04425   0.14964   0.00000  Uiso   1.00
C579   C     0.20582   0.09026   0.03414   0.00000  Uiso   1.00
C580   C     0.11539   0.04999   0.15497   0.00000  Uiso   1.00
C581   C     0.11587   0.05031   0.12098   0.00000  Uiso   1.00
C582   C     0.15871   0.18509   0.05437   0.00000  Uiso   1.00
C583   C     0.16070   0.15058   0.05244   0.00000  Uiso   1.00
C584   C     0.24335   0.17528   0.03349   0.00000  Uiso   1.00
C585   C     0.24676   0.14592   0.04015   0.00000  Uiso   1.00
C586   C     0.06987   0.04507   0.16864   0.00000  Uiso   1.00
C587   C     0.07258   0.04793   0.10217   0.00000  Uiso   1.00
C588   C     0.33224   0.04179   0.10078   0.00000  Uiso   1.00
C589   C     0.19850   0.19516   0.03959   0.00000  Uiso   1.00
C590   C     0.20489   0.13065   0.04473   0.00000  Uiso   1.00
C591   C     0.44683   0.19246   0.03721   0.00000  Uiso   1.00
C592   C     0.07479   0.04187   0.06309   0.00000  Uiso   1.00
C593   C     0.44630   0.21739   0.02296   0.00000  Uiso   1.00
C594   C     0.28573   0.03821   0.14721   0.00000  Uiso   1.00
C595   C     0.49296   0.14784   0.04697   0.00000  Uiso   1.00
C596   C     0.44987   0.08775   0.02973   0.00000  Uiso   1.00
C597   C     0.32749   0.03566   0.16351   0.00000  Uiso   1.00
C598   C     0.19530   0.22525   0.02949   0.00000  Uiso   1.00
C599   C     0.37324   0.03688   0.14849   0.00000  Uiso   1.00
C600   C     0.37555   0.04234   0.11862   0.00000  Uiso   1.00
C601   C     0.40327   0.17713   0.04006   0.00000  Uiso   1.00
C602   C     0.40397   0.14791   0.04527   0.00000  Uiso   1.00
C603   C     0.33290   0.03759   0.06306   0.00000  Uiso   1.00
C604   C     0.28728   0.04277   0.11620   0.00000  Uiso   1.00
C605   C     0.44891   0.12907   0.04311   0.00000  Uiso   1.00
C606   C     0.32611   0.02595   0.19376   0.00000  Uiso   1.00
C607   C     0.49144   0.18122   0.04564   0.00000  Uiso   1.00
C608   C     0.06884   0.03162   0.19711   0.00000  Uiso   1.00
C609   C     0.32334   0.06139   0.29910   0.00000  Uiso   1.00
C610   C     0.02911   0.11459   0.35375   0.00000  Uiso   1.00
C611   C     0.11003   0.09583   0.36277   0.00000  Uiso   1.00
C612   C     0.07046   0.06322   0.29969   0.00000  Uiso   1.00
C613   C     0.07168   0.09342   0.33862   0.00000  Uiso   1.00
C614   C     0.36768   0.13070   0.39462   0.00000  Uiso   1.00
C615   C     0.02768   0.13956   0.39160   0.00000  Uiso   1.00
C616   C     0.32615   0.09521   0.33593   0.00000  Uiso   1.00
C617   C     0.36723   0.10108   0.35705   0.00000  Uiso   1.00
C618   C     0.28721   0.11957   0.35023   0.00000  Uiso   1.00
C619   C     0.28595   0.14563   0.38720   0.00000  Uiso   1.00
C620   C     0.10937   0.11961   0.39999   0.00000  Uiso   1.00
C621   C     0.19659   0.00420   0.47471   0.00000  Uiso   1.00
C622   C     0.06891   0.17071   0.45370   0.00000  Uiso   1.00
C623   C     0.06890   0.14237   0.41398   0.00000  Uiso   1.00
C624   C     0.27798   0.00950   0.58316   0.00000  Uiso   1.00
C625   C     0.44597   0.04584   0.48775   0.00000  Uiso   1.00
C626   C     0.15483   0.10064   0.49933   0.00000  Uiso   1.00
C627   C     0.15411   0.06404   0.49085   0.00000  Uiso   1.00
C628   C     0.24186   0.09964   0.49991   0.00000  Uiso   1.00
C629   C     0.24249   0.06149   0.48938   0.00000  Uiso   1.00
C630   C     0.19814   0.15569   0.50700   0.00000  Uiso   1.00
C631   C     0.19846   0.11994   0.50514   0.00000  Uiso   1.00
C632   C     0.19689   0.04479   0.48805   0.00000  Uiso   1.00
C633   C     0.48735   0.10151   0.50326   0.00000  Uiso   1.00
C634   C     0.32541   0.14983   0.41065   0.00000  Uiso   1.00
C635   C     0.32277   0.17325   0.44958   0.00000  Uiso   1.00
C636   C     0.44385   0.11950   0.50426   0.00000  Uiso   1.00
C637   C     0.39946   0.10073   0.49903   0.00000  Uiso   1.00
C638   C     0.40103   0.06389   0.48988   0.00000  Uiso   1.00
C639   C     0.36492   0.00472   0.58368   0.00000  Uiso   1.00
C640   C     0.44333   0.15885   0.51349   0.00000  Uiso   1.00
C641   C     0.48836   0.06553   0.49765   0.00000  Uiso   1.00
C642   C     0.44616   0.00507   0.47558   0.00000  Uiso   1.00
C643   C     0.04351   0.00549   0.57925   0.00000  Uiso   1.00
C644   C     0.32212   0.00152   0.56410   0.00000  Uiso   1.00
C645   C     0.27635   0.01753   0.61993   0.00000  Uiso   1.00
C646   C     0.32066   0.08716   0.78686   0.00000  Uiso   1.00
C647   C     0.03954   0.01932   0.61765   0.00000  Uiso   1.00
C648   C     0.31933   0.02627   0.67665   0.00000  Uiso   1.00
C649   C     0.07520   0.02079   0.67279   0.00000  Uiso   1.00
C650   C     0.07160   0.09231   0.78107   0.00000  Uiso   1.00
C651   C     0.32024   0.02294   0.64020   0.00000  Uiso   1.00
C652   C     0.07933   0.01515   0.63607   0.00000  Uiso   1.00
C653   C     0.36424   0.01980   0.62178   0.00000  Uiso   1.00
C654   C     0.44741   0.02348   0.79672   0.00000  Uiso   1.00
C655   C     0.07204   0.13072   0.81002   0.00000  Uiso   1.00
C656   C     0.45239   0.01606   0.92980   0.00000  Uiso   1.00
C657   C     0.24816   0.02869   0.88662   0.00000  Uiso   1.00
C658   C     0.02904   0.14721   0.82748   0.00000  Uiso   1.00
C659   C     0.11682   0.18143   0.86072   0.00000  Uiso   1.00
C660   C     0.11509   0.14838   0.82595   0.00000  Uiso   1.00
C661   C     0.02795   0.18115   0.86142   0.00000  Uiso   1.00
C662   C     0.07445   0.22346   0.92001   0.00000  Uiso   1.00
C663   C     0.07323   0.19702   0.87951   0.00000  Uiso   1.00
C664   C     0.40994   0.01361   0.87758   0.00000  Uiso   1.00
C665   C     0.27929   0.14662   0.83263   0.00000  Uiso   1.00
C666   C     0.36665   0.18012   0.86442   0.00000  Uiso   1.00
C667   C     0.36598   0.14617   0.83093   0.00000  Uiso   1.00
C668   C     0.27843   0.17892   0.86550   0.00000  Uiso   1.00
C669   C     0.32111   0.22631   0.92214   0.00000  Uiso   1.00
C670   C     0.32247   0.19498   0.88369   0.00000  Uiso   1.00
C671   C     0.20073   0.03752   0.84119   0.00000  Uiso   1.00
C672   C     0.44955   0.02588   0.83363   0.00000  Uiso   1.00
C673   C     0.32177   0.12622   0.81636   0.00000  Uiso   1.00
C674   C     0.20198   0.02541   0.93679   0.00000  Uiso   1.00
C675   C     0.16162   0.04225   0.89477   0.00000  Uiso   1.00
C676   C     0.20404   0.03189   0.90573   0.00000  Uiso   1.00
C677   C     0.24548   0.03079   0.85398   0.00000  Uiso   1.00
C678   C     0.15920   0.04404   0.86189   0.00000  Uiso   1.00
C679   C     0.40977   0.01419   0.84475   0.00000  Uiso   1.00
C680   C     0.45303   0.01788   0.89674   0.00000  Uiso   1.00
C681   C     0.19797   0.03068   0.80243   0.00000  Uiso   1.00
C682   C     0.49284   0.03485   0.85474   0.00000  Uiso   1.00
C683   C     0.49510   0.03106   0.88653   0.00000  Uiso   1.00
C684   C     0.32438   0.47624   0.02997   0.00000  Uiso   1.00
C685   C     0.15339   0.39798   0.14929   0.00000  Uiso   1.00
C686   C     0.23703   0.37742   0.10521   0.00000  Uiso   1.00
C687   C     0.23691   0.40914   0.14028   0.00000  Uiso   1.00
C688   C     0.15256   0.36575   0.11372   0.00000  Uiso   1.00
C689   C     0.48991   0.36449   0.11532   0.00000  Uiso   1.00
C690   C     0.19548   0.42098   0.16267   0.00000  Uiso   1.00
C691   C     0.19644   0.32351   0.05396   0.00000  Uiso   1.00
C692   C     0.19554   0.35614   0.09122   0.00000  Uiso   1.00
C693   C     0.32613   0.32566   0.00281   0.00000  Uiso   1.00
C694   C     0.44763   0.35107   0.09576   0.00000  Uiso   1.00
C695   C     0.40231   0.40105   0.14482   0.00000  Uiso   1.00
C696   C     0.06957   0.47156   0.01632   0.00000  Uiso   1.00
C697   C     0.40261   0.36664   0.11094   0.00000  Uiso   1.00
C698   C     0.44684   0.41643   0.16474   0.00000  Uiso   1.00
C699   C     0.45010   0.31866   0.05835   0.00000  Uiso   1.00
C700   C     0.48917   0.39591   0.15038   0.00000  Uiso   1.00
C701   C     0.32521   0.36481   0.01125   0.00000  Uiso   1.00
C702   C     0.07204   0.43297   0.00939   0.00000  Uiso   1.00
C703   C     0.32363   0.43971   0.02750   0.00000  Uiso   1.00
C704   C     0.36754   0.42092   0.02443   0.00000  Uiso   1.00
C705   C     0.02621   0.41300   0.00491   0.00000  Uiso   1.00
C706   C     0.11624   0.41363   0.00367   0.00000  Uiso   1.00
C707   C     0.28163   0.38368   0.01554   0.00000  Uiso   1.00
C708   C     0.36847   0.38371   0.01726   0.00000  Uiso   1.00
C709   C     0.28074   0.42057   0.02444   0.00000  Uiso   1.00
C710   C     0.19500   0.45682   0.19647   0.00000  Uiso   1.00
C711   C     0.44532   0.45265   0.19970   0.00000  Uiso   1.00
C712   C     0.02714   0.37758   0.00032   0.00000  Uiso   1.00
C713   C     0.19455   0.46196   0.38642   0.00000  Uiso   1.00
C714   C     0.44370   0.48082   0.33124   0.00000  Uiso   1.00
C715   C     0.40241   0.46776   0.34040   0.00000  Uiso   1.00
C716   C     0.48783   0.48413   0.34939   0.00000  Uiso   1.00
C717   C     0.40596   0.45629   0.36632   0.00000  Uiso   1.00
C718   C     0.49030   0.47599   0.37776   0.00000  Uiso   1.00
C719   C     0.23553   0.46668   0.33733   0.00000  Uiso   1.00
C720   C     0.15215   0.48213   0.34935   0.00000  Uiso   1.00
C721   C     0.44854   0.46422   0.38810   0.00000  Uiso   1.00
C722   C     0.23653   0.45831   0.36573   0.00000  Uiso   1.00
C723   C     0.19379   0.47796   0.32750   0.00000  Uiso   1.00
C724   C     0.15272   0.47386   0.37824   0.00000  Uiso   1.00
C725   C     0.44263   0.49389   0.30447   0.00000  Uiso   1.00
C726   C     0.19379   0.49276   0.30310   0.00000  Uiso   1.00
C727   C     0.02541   0.32605   0.50168   0.00000  Uiso   1.00
C728   C     0.02541   0.35313   0.49090   0.00000  Uiso   1.00
C729   C     0.10997   0.31538   0.48985   0.00000  Uiso   1.00
C730   C     0.11068   0.34269   0.48082   0.00000  Uiso   1.00
C731   C     0.19595   0.45633   0.41804   0.00000  Uiso   1.00
C732   C     0.06653   0.27547   0.50858   0.00000  Uiso   1.00
C733   C     0.06732   0.30465   0.49781   0.00000  Uiso   1.00
C734   C     0.06954   0.36179   0.48201   0.00000  Uiso   1.00
C735   C     0.07211   0.39422   0.47688   0.00000  Uiso   1.00
C736   C     0.31783   0.49917   0.59026   0.00000  Uiso   1.00
C737   C     0.27931   0.31354   0.48144   0.00000  Uiso   1.00
C738   C     0.27733   0.34400   0.47528   0.00000  Uiso   1.00
C739   C     0.36561   0.31528   0.48129   0.00000  Uiso   1.00
C740   C     0.36303   0.34680   0.47755   0.00000  Uiso   1.00
C741   C     0.32228   0.27306   0.50008   0.00000  Uiso   1.00
C742   C     0.32325   0.30094   0.48795   0.00000  Uiso   1.00
C743   C     0.31960   0.36302   0.47698   0.00000  Uiso   1.00
C744   C     0.31932   0.39652   0.47463   0.00000  Uiso   1.00
C745   C     0.44827   0.45908   0.41969   0.00000  Uiso   1.00
C746   C     0.31776   0.49325   0.55259   0.00000  Uiso   1.00
C747   C     0.07127   0.48487   0.55116   0.00000  Uiso   1.00
C748   C     0.19847   0.26187   0.58977   0.00000  Uiso   1.00
C749   C     0.44860   0.25876   0.59152   0.00000  Uiso   1.00
C750   C     0.07322   0.49263   0.59066   0.00000  Uiso   1.00
C751   C     0.15279   0.34463   0.67812   0.00000  Uiso   1.00
C752   C     0.24136   0.31295   0.64494   0.00000  Uiso   1.00
C753   C     0.23895   0.34820   0.67564   0.00000  Uiso   1.00
C754   C     0.15574   0.30886   0.64620   0.00000  Uiso   1.00
C755   C     0.19355   0.40638   0.71472   0.00000  Uiso   1.00
C756   C     0.19464   0.36581   0.69133   0.00000  Uiso   1.00
C757   C     0.19955   0.29339   0.62903   0.00000  Uiso   1.00
C758   C     0.44730   0.28953   0.63007   0.00000  Uiso   1.00
C759   C     0.44525   0.36429   0.68850   0.00000  Uiso   1.00
C760   C     0.40293   0.34434   0.67381   0.00000  Uiso   1.00
C761   C     0.49001   0.34380   0.67816   0.00000  Uiso   1.00
C762   C     0.40385   0.30764   0.64507   0.00000  Uiso   1.00
C763   C     0.44547   0.40496   0.70963   0.00000  Uiso   1.00
C764   C     0.06882   0.49051   0.69234   0.00000  Uiso   1.00
C765   C     0.49149   0.30776   0.64788   0.00000  Uiso   1.00
C766   C     0.11413   0.49177   0.64200   0.00000  Uiso   1.00
C767   C     0.32122   0.49379   0.69187   0.00000  Uiso   1.00
C768   C     0.11642   0.48766   0.60565   0.00000  Uiso   1.00
C769   C     0.07204   0.49498   0.65985   0.00000  Uiso   1.00
C770   C     0.27475   0.49873   0.60810   0.00000  Uiso   1.00
C771   C     0.27560   0.49600   0.64087   0.00000  Uiso   1.00
C772   C     0.44716   0.49310   0.81278   0.00000  Uiso   1.00
C773   C     0.20161   0.49180   0.80944   0.00000  Uiso   1.00
C774   C     0.44637   0.49942   0.85140   0.00000  Uiso   1.00
C775   C     0.49142   0.49893   0.86752   0.00000  Uiso   1.00
C776   C     0.07075   0.32275   0.99276   0.00000  Uiso   1.00
C777   C     0.07124   0.35974   0.99601   0.00000  Uiso   1.00
C778   C     0.20282   0.49819   0.84771   0.00000  Uiso   1.00
C779   C     0.11547   0.37796   0.99776   0.00000  Uiso   1.00
C780   C     0.49707   0.68400   0.03638   0.00000  Uiso   1.00
C781   C     0.24120   0.68844   0.04537   0.00000  Uiso   1.00
C782   C     0.19603   0.60797   0.05192   0.00000  Uiso   1.00
C783   C     0.19874   0.70171   0.03958   0.00000  Uiso   1.00
C784   C     0.11757   0.58173   0.15944   0.00000  Uiso   1.00
C785   C     0.45354   0.69258   0.02401   0.00000  Uiso   1.00
C786   C     0.36013   0.57782   0.18589   0.00000  Uiso   1.00
C787   C     0.23977   0.66028   0.05292   0.00000  Uiso   1.00
C788   C     0.07552   0.58074   0.13954   0.00000  Uiso   1.00
C789   C     0.07739   0.56959   0.09906   0.00000  Uiso   1.00
C790   C     0.15389   0.69331   0.04835   0.00000  Uiso   1.00
C791   C     0.45348   0.63985   0.04812   0.00000  Uiso   1.00
C792   C     0.19436   0.64541   0.05558   0.00000  Uiso   1.00
C793   C     0.20071   0.72070   0.01705   0.00000  Uiso   1.00
C794   C     0.15038   0.66388   0.05650   0.00000  Uiso   1.00
C795   C     0.27184   0.58572   0.15790   0.00000  Uiso   1.00
C796   C     0.45133   0.60494   0.04896   0.00000  Uiso   1.00
C797   C     0.41007   0.65300   0.04173   0.00000  Uiso   1.00
C798   C     0.40922   0.67711   0.02789   0.00000  Uiso   1.00
C799   C     0.31457   0.58761   0.14176   0.00000  Uiso   1.00
C800   C     0.35891   0.58870   0.15890   0.00000  Uiso   1.00
C801   C     0.31630   0.57609   0.10125   0.00000  Uiso   1.00
C802   C     0.03137   0.58442   0.15678   0.00000  Uiso   1.00
C803   C     0.45399   0.71849   0.01003   0.00000  Uiso   1.00
C804   C     0.27254   0.58011   0.18809   0.00000  Uiso   1.00
C805   C     0.02727   0.58214   0.18818   0.00000  Uiso   1.00
C806   C     0.11304   0.58003   0.19200   0.00000  Uiso   1.00
C807   C     0.49751   0.65625   0.04713   0.00000  Uiso   1.00
C808   C     0.27725   0.61568   0.38689   0.00000  Uiso   1.00
C809   C     0.36419   0.60732   0.38735   0.00000  Uiso   1.00
C810   C     0.31599   0.55463   0.22323   0.00000  Uiso   1.00
C811   C     0.10784   0.59951   0.38906   0.00000  Uiso   1.00
C812   C     0.06567   0.57008   0.32900   0.00000  Uiso   1.00
C813   C     0.06517   0.59511   0.36999   0.00000  Uiso   1.00
C814   C     0.06704   0.55733   0.22689   0.00000  Uiso   1.00
C815   C     0.02479   0.61555   0.38880   0.00000  Uiso   1.00
C816   C     0.31911   0.57082   0.32667   0.00000  Uiso   1.00
C817   C     0.32124   0.59828   0.36671   0.00000  Uiso   1.00
C818   C     0.31622   0.57221   0.20022   0.00000  Uiso   1.00
C819   C     0.06709   0.57580   0.20376   0.00000  Uiso   1.00
C820   C     0.07215   0.67828   0.48516   0.00000  Uiso   1.00
C821   C     0.06934   0.64939   0.44619   0.00000  Uiso   1.00
C822   C     0.02598   0.64254   0.42682   0.00000  Uiso   1.00
C823   C     0.15161   0.63068   0.55140   0.00000  Uiso   1.00
C824   C     0.15053   0.59359   0.54161   0.00000  Uiso   1.00
C825   C     0.24062   0.62884   0.55159   0.00000  Uiso   1.00
C826   C     0.23838   0.59077   0.53802   0.00000  Uiso   1.00
C827   C     0.19750   0.68413   0.55834   0.00000  Uiso   1.00
C828   C     0.19710   0.64755   0.55464   0.00000  Uiso   1.00
C829   C     0.19277   0.57289   0.53288   0.00000  Uiso   1.00
C830   C     0.10999   0.62640   0.42683   0.00000  Uiso   1.00
C831   C     0.36332   0.63202   0.42497   0.00000  Uiso   1.00
C832   C     0.27708   0.63843   0.42519   0.00000  Uiso   1.00
C833   C     0.44828   0.52925   0.51400   0.00000  Uiso   1.00
C834   C     0.32160   0.68212   0.48309   0.00000  Uiso   1.00
C835   C     0.41498   0.63015   0.55241   0.00000  Uiso   1.00
C836   C     0.40947   0.59408   0.54313   0.00000  Uiso   1.00
C837   C     0.19259   0.53180   0.51405   0.00000  Uiso   1.00
C838   C     0.45762   0.68107   0.54942   0.00000  Uiso   1.00
C839   C     0.45839   0.64444   0.54638   0.00000  Uiso   1.00
C840   C     0.45063   0.56986   0.53036   0.00000  Uiso   1.00
C841   C     0.32106   0.64919   0.44530   0.00000  Uiso   1.00
C842   C     0.49926   0.62089   0.53478   0.00000  Uiso   1.00
C843   C     0.49637   0.58457   0.52923   0.00000  Uiso   1.00
C844   C     0.06910   0.54581   0.79204   0.00000  Uiso   1.00
C845   C     0.31819   0.54607   0.78637   0.00000  Uiso   1.00
C846   C     0.03071   0.50449   0.64672   0.00000  Uiso   1.00
C847   C     0.36049   0.50288   0.60886   0.00000  Uiso   1.00
C848   C     0.03069   0.50418   0.61370   0.00000  Uiso   1.00
C849   C     0.36217   0.50189   0.64201   0.00000  Uiso   1.00
C850   C     0.31967   0.50006   0.65935   0.00000  Uiso   1.00
C851   C     0.49291   0.50345   0.90254   0.00000  Uiso   1.00
C852   C     0.02712   0.60507   0.82870   0.00000  Uiso   1.00
C853   C     0.11234   0.63715   0.86618   0.00000  Uiso   1.00
C854   C     0.11314   0.60139   0.83892   0.00000  Uiso   1.00
C855   C     0.02638   0.64261   0.85762   0.00000  Uiso   1.00
C856   C     0.07419   0.69599   0.90810   0.00000  Uiso   1.00
C857   C     0.06879   0.65796   0.87655   0.00000  Uiso   1.00
C858   C     0.27641   0.60557   0.82631   0.00000  Uiso   1.00
C859   C     0.36516   0.64039   0.85305   0.00000  Uiso   1.00
C860   C     0.36505   0.60471   0.82368   0.00000  Uiso   1.00
C861   C     0.27798   0.64279   0.85266   0.00000  Uiso   1.00
C862   C     0.06883   0.58414   0.82066   0.00000  Uiso   1.00
C863   C     0.20263   0.50953   0.92005   0.00000  Uiso   1.00
C864   C     0.32087   0.69565   0.90370   0.00000  Uiso   1.00
C865   C     0.32183   0.66114   0.86766   0.00000  Uiso   1.00
C866   C     0.20141   0.52034   0.95991   0.00000  Uiso   1.00
C867   C     0.45173   0.51395   0.96180   0.00000  Uiso   1.00
C868   C     0.32009   0.58587   0.81293   0.00000  Uiso   1.00
C869   C     0.24788   0.50143   0.86699   0.00000  Uiso   1.00
C870   C     0.24702   0.50798   0.90326   0.00000  Uiso   1.00
C871   C     0.45075   0.50796   0.92266   0.00000  Uiso   1.00
C872   C     0.15773   0.50484   0.86745   0.00000  Uiso   1.00
C873   C     0.40248   0.50209   0.87120   0.00000  Uiso   1.00
C874   C     0.15782   0.50947   0.90292   0.00000  Uiso   1.00
C875   C     0.40695   0.50730   0.90768   0.00000  Uiso   1.00
C876   C     0.45333   0.81369   0.02523   0.00000  Uiso   1.00
C877   C     0.44432   0.94495   0.17211   0.00000  Uiso   1.00
C878   C     0.15925   0.90756   0.10845   0.00000  Uiso   1.00
C879   C     0.24493   0.86800   0.08307   0.00000  Uiso   1.00
C880   C     0.24354   0.90010   0.11841   0.00000  Uiso   1.00
C881   C     0.15914   0.87467   0.07569   0.00000  Uiso   1.00
C882   C     0.19897   0.91786   0.13302   0.00000  Uiso   1.00
C883   C     0.20231   0.81651   0.02911   0.00000  Uiso   1.00
C884   C     0.20133   0.85241   0.06367   0.00000  Uiso   1.00
C885   C     0.44745   0.91303   0.13453   0.00000  Uiso   1.00
C886   C     0.45097   0.84980   0.06195   0.00000  Uiso   1.00
C887   C     0.19814   0.95052   0.17104   0.00000  Uiso   1.00
C888   C     0.40460   0.89314   0.11412   0.00000  Uiso   1.00
C889   C     0.49383   0.86981   0.08086   0.00000  Uiso   1.00
C890   C     0.40585   0.86297   0.07931   0.00000  Uiso   1.00
C891   C     0.49182   0.89909   0.11735   0.00000  Uiso   1.00
C892   C     0.19748   0.92275   0.34432   0.00000  Uiso   1.00
C893   C     0.20033   0.92392   0.38034   0.00000  Uiso   1.00
C894   C     0.40065   0.93109   0.30252   0.00000  Uiso   1.00
C895   C     0.44593   0.95053   0.26432   0.00000  Uiso   1.00
C896   C     0.23899   0.92464   0.32550   0.00000  Uiso   1.00
C897   C     0.44273   0.91637   0.34378   0.00000  Uiso   1.00
C898   C     0.44630   0.93449   0.28789   0.00000  Uiso   1.00
C899   C     0.15341   0.93225   0.33391   0.00000  Uiso   1.00
C900   C     0.39992   0.92188   0.33031   0.00000  Uiso   1.00
C901   C     0.15146   0.94426   0.30827   0.00000  Uiso   1.00
C902   C     0.44461   0.91837   0.38019   0.00000  Uiso   1.00
C903   C     0.23622   0.93134   0.29617   0.00000  Uiso   1.00
C904   C     0.19263   0.94519   0.29032   0.00000  Uiso   1.00
C905   C     0.19580   0.96384   0.26793   0.00000  Uiso   1.00
C906   C     0.48845   0.92214   0.29696   0.00000  Uiso   1.00
C907   C     0.48644   0.91535   0.32583   0.00000  Uiso   1.00
C908   C     0.03213   0.81077   0.48745   0.00000  Uiso   1.00
C909   C     0.03362   0.83069   0.46852   0.00000  Uiso   1.00
C910   C     0.11847   0.81185   0.48986   0.00000  Uiso   1.00
C911   C     0.12052   0.83519   0.47530   0.00000  Uiso   1.00
C912   C     0.07478   0.77616   0.51375   0.00000  Uiso   1.00
C913   C     0.07445   0.79762   0.49498   0.00000  Uiso   1.00
C914   C     0.07820   0.84267   0.46268   0.00000  Uiso   1.00
C915   C     0.08032   0.87212   0.45239   0.00000  Uiso   1.00
C916   C     0.08493   0.97016   0.51792   0.00000  Uiso   1.00
C917   C     0.32146   0.97873   0.52275   0.00000  Uiso   1.00
C918   C     0.28185   0.80953   0.48378   0.00000  Uiso   1.00
C919   C     0.28047   0.83283   0.46937   0.00000  Uiso   1.00
C920   C     0.35804   0.83282   0.51100   0.00000  Uiso   1.00
C921   C     0.36008   0.85620   0.49530   0.00000  Uiso   1.00
C922   C     0.32326   0.78370   0.51873   0.00000  Uiso   1.00
C923   C     0.32092   0.80730   0.50285   0.00000  Uiso   1.00
C924   C     0.32107   0.85557   0.47336   0.00000  Uiso   1.00
C925   C     0.32095   0.88292   0.46119   0.00000  Uiso   1.00
C926   C     0.08796   0.99067   0.55981   0.00000  Uiso   1.00
C927   C     0.12623   0.98741   0.58001   0.00000  Uiso   1.00
C928   C     0.44343   0.82846   0.64764   0.00000  Uiso   1.00
C929   C     0.19449   0.83011   0.64417   0.00000  Uiso   1.00
C930   C     0.44736   0.79065   0.61433   0.00000  Uiso   1.00
C931   C     0.14938   0.88657   0.67811   0.00000  Uiso   1.00
C932   C     0.23906   0.85070   0.65935   0.00000  Uiso   1.00
C933   C     0.23666   0.88905   0.67781   0.00000  Uiso   1.00
C934   C     0.14981   0.84885   0.65432   0.00000  Uiso   1.00
C935   C     0.19149   0.94932   0.70597   0.00000  Uiso   1.00
C936   C     0.19204   0.90783   0.68818   0.00000  Uiso   1.00
C937   C     0.44589   0.94525   0.70789   0.00000  Uiso   1.00
C938   C     0.44287   0.90466   0.69059   0.00000  Uiso   1.00
C939   C     0.19541   0.79325   0.61381   0.00000  Uiso   1.00
C940   C     0.40070   0.84893   0.65370   0.00000  Uiso   1.00
C941   C     0.39961   0.88708   0.67363   0.00000  Uiso   1.00
C942   C     0.48367   0.84530   0.67022   0.00000  Uiso   1.00
C943   C     0.48197   0.88413   0.69159   0.00000  Uiso   1.00
C944   C     0.12067   0.99891   0.61705   0.00000  Uiso   1.00
C945   C     0.12638   0.86048   0.95990   0.00000  Uiso   1.00
C946   C     0.32291   0.80500   0.96228   0.00000  Uiso   1.00
C947   C     0.12726   0.89510   0.96266   0.00000  Uiso   1.00
C948   C     0.32323   0.83995   0.96211   0.00000  Uiso   1.00
C949   C     0.27912   0.85495   0.95927   0.00000  Uiso   1.00
C950   C     0.08391   0.80537   0.95670   0.00000  Uiso   1.00
C951   C     0.36576   0.86070   0.97044   0.00000  Uiso   1.00
C952   C     0.32268   0.91040   0.96751   0.00000  Uiso   1.00
C953   C     0.32305   0.94801   0.97213   0.00000  Uiso   1.00
C954   C     0.27911   0.89008   0.96232   0.00000  Uiso   1.00
C955   C     0.08290   0.83984   0.95410   0.00000  Uiso   1.00
C956   C     0.08228   0.91114   0.96200   0.00000  Uiso   1.00
C957   C     0.03922   0.85684   0.95165   0.00000  Uiso   1.00
C958   C     0.07799   0.94970   0.96955   0.00000  Uiso   1.00
C959   C     0.36550   0.89342   0.97053   0.00000  Uiso   1.00
C960   C     0.03842   0.89064   0.95361   0.00000  Uiso   1.00
C961   C     0.61913   0.03086   0.14747   0.00000  Uiso   1.00
C962   C     0.62293   0.03066   0.11549   0.00000  Uiso   1.00
C963   C     0.66144   0.17456   0.03708   0.00000  Uiso   1.00
C964   C     0.66324   0.14330   0.04081   0.00000  Uiso   1.00
C965   C     0.53336   0.04297   0.15137   0.00000  Uiso   1.00
C966   C     0.74833   0.17131   0.03015   0.00000  Uiso   1.00
C967   C     0.74839   0.13815   0.03060   0.00000  Uiso   1.00
C968   C     0.70383   0.21925   0.02264   0.00000  Uiso   1.00
C969   C     0.58208   0.03996   0.10137   0.00000  Uiso   1.00
C970   C     0.83096   0.03678   0.06582   0.00000  Uiso   1.00
C971   C     0.70509   0.18955   0.03227   0.00000  Uiso   1.00
C972   C     0.70562   0.12359   0.03512   0.00000  Uiso   1.00
C973   C     0.94937   0.09143   0.03419   0.00000  Uiso   1.00
C974   C     0.83299   0.04559   0.10432   0.00000  Uiso   1.00
C975   C     0.82707   0.03961   0.16979   0.00000  Uiso   1.00
C976   C     0.56971   0.02189   0.19256   0.00000  Uiso   1.00
C977   C     0.94559   0.13388   0.04958   0.00000  Uiso   1.00
C978   C     0.57350   0.03179   0.16338   0.00000  Uiso   1.00
C979   C     0.98985   0.18071   0.04300   0.00000  Uiso   1.00
C980   C     0.70331   0.08518   0.02791   0.00000  Uiso   1.00
C981   C     0.58222   0.03599   0.06448   0.00000  Uiso   1.00
C982   C     0.53668   0.04527   0.11941   0.00000  Uiso   1.00
C983   C     0.94707   0.19465   0.03638   0.00000  Uiso   1.00
C984   C     0.94931   0.22315   0.02523   0.00000  Uiso   1.00
C985   C     0.86985   0.03408   0.15022   0.00000  Uiso   1.00
C986   C     0.90315   0.18153   0.04122   0.00000  Uiso   1.00
C987   C     0.90242   0.15017   0.04656   0.00000  Uiso   1.00
C988   C     0.78660   0.05327   0.15900   0.00000  Uiso   1.00
C989   C     0.79012   0.05681   0.12682   0.00000  Uiso   1.00
C990   C     0.87177   0.03339   0.11613   0.00000  Uiso   1.00
C991   C     0.98874   0.15152   0.04997   0.00000  Uiso   1.00
C992   C     0.82242   0.03002   0.19968   0.00000  Uiso   1.00
C993   C     0.81650   0.05930   0.30354   0.00000  Uiso   1.00
C994   C     0.52567   0.10771   0.35768   0.00000  Uiso   1.00
C995   C     0.61348   0.10576   0.35729   0.00000  Uiso   1.00
C996   C     0.56799   0.06011   0.29995   0.00000  Uiso   1.00
C997   C     0.56902   0.09306   0.33792   0.00000  Uiso   1.00
C998   C     0.85786   0.10793   0.36036   0.00000  Uiso   1.00
C999   C     0.81517   0.09038   0.34179   0.00000  Uiso   1.00
C1000  C     0.77254   0.10138   0.36250   0.00000  Uiso   1.00
C1001  C     0.85986   0.13606   0.39765   0.00000  Uiso   1.00
C1002  C     0.61422   0.13304   0.39407   0.00000  Uiso   1.00
C1003  C     0.52490   0.13442   0.39622   0.00000  Uiso   1.00
C1004  C     0.94970   0.04438   0.49305   0.00000  Uiso   1.00
C1005  C     0.57104   0.17146   0.45427   0.00000  Uiso   1.00
C1006  C     0.65308   0.09444   0.49503   0.00000  Uiso   1.00
C1007  C     0.65542   0.05789   0.48529   0.00000  Uiso   1.00
C1008  C     0.73655   0.10294   0.51553   0.00000  Uiso   1.00
C1009  C     0.73946   0.06469   0.50426   0.00000  Uiso   1.00
C1010  C     0.69274   0.15497   0.51206   0.00000  Uiso   1.00
C1011  C     0.69364   0.11632   0.50621   0.00000  Uiso   1.00
C1012  C     0.69929   0.04206   0.48839   0.00000  Uiso   1.00
C1013  C     0.95176   0.00304   0.47695   0.00000  Uiso   1.00
C1014  C     0.99287   0.06616   0.50139   0.00000  Uiso   1.00
C1015  C     0.81533   0.14488   0.41745   0.00000  Uiso   1.00
C1016  C     0.99121   0.10193   0.50962   0.00000  Uiso   1.00
C1017  C     0.81581   0.17140   0.45768   0.00000  Uiso   1.00
C1018  C     0.57197   0.14509   0.41539   0.00000  Uiso   1.00
C1019  C     0.90587   0.10046   0.50976   0.00000  Uiso   1.00
C1020  C     0.90627   0.06277   0.49764   0.00000  Uiso   1.00
C1021  C     0.94831   0.15831   0.51738   0.00000  Uiso   1.00
C1022  C     0.94829   0.11909   0.51146   0.00000  Uiso   1.00
C1023  C     0.70064   0.00163   0.47340   0.00000  Uiso   1.00
C1024  C     0.77144   0.12845   0.40006   0.00000  Uiso   1.00
C1025  C     0.87240   0.00001   0.57893   0.00000  Uiso   1.00
C1026  C     0.82724   0.01780   0.67300   0.00000  Uiso   1.00
C1027  C     0.57530   0.01701   0.67339   0.00000  Uiso   1.00
C1028  C     0.56655   0.08658   0.78462   0.00000  Uiso   1.00
C1029  C     0.53214   0.00135   0.61462   0.00000  Uiso   1.00
C1030  C     0.82255   0.09003   0.78404   0.00000  Uiso   1.00
C1031  C     0.62194   0.00808   0.61713   0.00000  Uiso   1.00
C1032  C     0.57673   0.00889   0.63445   0.00000  Uiso   1.00
C1033  C     0.87163   0.01084   0.61626   0.00000  Uiso   1.00
C1034  C     0.78439   0.00404   0.61491   0.00000  Uiso   1.00
C1035  C     0.82657   0.00933   0.63336   0.00000  Uiso   1.00
C1036  C     0.74472   0.02830   0.85426   0.00000  Uiso   1.00
C1037  C     0.95085   0.02927   0.93753   0.00000  Uiso   1.00
C1038  C     0.52859   0.13205   0.84246   0.00000  Uiso   1.00
C1039  C     0.60639   0.18104   0.86216   0.00000  Uiso   1.00
C1040  C     0.60405   0.14858   0.82608   0.00000  Uiso   1.00
C1041  C     0.52975   0.16399   0.87645   0.00000  Uiso   1.00
C1042  C     0.82095   0.19818   0.88136   0.00000  Uiso   1.00
C1043  C     0.56986   0.21876   0.92603   0.00000  Uiso   1.00
C1044  C     0.56910   0.18866   0.88740   0.00000  Uiso   1.00
C1045  C     0.82109   0.12972   0.81430   0.00000  Uiso   1.00
C1046  C     0.82160   0.22459   0.92139   0.00000  Uiso   1.00
C1047  C     0.77686   0.14695   0.83109   0.00000  Uiso   1.00
C1048  C     0.86477   0.18306   0.86407   0.00000  Uiso   1.00
C1049  C     0.86520   0.14841   0.83228   0.00000  Uiso   1.00
C1050  C     0.77493   0.18338   0.86531   0.00000  Uiso   1.00
C1051  C     0.99518   0.04070   0.89079   0.00000  Uiso   1.00
C1052  C     0.65811   0.01431   0.88035   0.00000  Uiso   1.00
C1053  C     0.70184   0.02200   0.83352   0.00000  Uiso   1.00
C1054  C     0.74527   0.02473   0.88574   0.00000  Uiso   1.00
C1055  C     0.95077   0.04732   0.84366   0.00000  Uiso   1.00
C1056  C     0.95176   0.03725   0.90646   0.00000  Uiso   1.00
C1057  C     0.56428   0.12379   0.81653   0.00000  Uiso   1.00
C1058  C     0.65754   0.01411   0.84629   0.00000  Uiso   1.00
C1059  C     0.99441   0.04770   0.86124   0.00000  Uiso   1.00
C1060  C     0.70092   0.01546   0.89766   0.00000  Uiso   1.00
C1061  C     0.90679   0.04445   0.85953   0.00000  Uiso   1.00
C1062  C     0.70152   0.01439   0.93227   0.00000  Uiso   1.00
C1063  C     0.90851   0.03989   0.89136   0.00000  Uiso   1.00
C1064  C     0.94863   0.04127   0.80480   0.00000  Uiso   1.00
C1065  C     0.70146   0.02552   0.80078   0.00000  Uiso   1.00
C1066  C     0.94720   0.35833   0.09195   0.00000  Uiso   1.00
C1067  C     0.64963   0.39984   0.14618   0.00000  Uiso   1.00
C1068  C     0.73927   0.37341   0.11134   0.00000  Uiso   1.00
C1069  C     0.73788   0.40446   0.14681   0.00000  Uiso   1.00
C1070  C     0.65260   0.36736   0.11180   0.00000  Uiso   1.00
C1071  C     0.94579   0.41977   0.16269   0.00000  Uiso   1.00
C1072  C     0.69260   0.41896   0.16323   0.00000  Uiso   1.00
C1073  C     0.69730   0.31929   0.05909   0.00000  Uiso   1.00
C1074  C     0.69633   0.35457   0.09462   0.00000  Uiso   1.00
C1075  C     0.94795   0.32458   0.05502   0.00000  Uiso   1.00
C1076  C     0.57330   0.36392   0.00979   0.00000  Uiso   1.00
C1077  C     0.90366   0.40644   0.14425   0.00000  Uiso   1.00
C1078  C     0.99055   0.37496   0.11013   0.00000  Uiso   1.00
C1079  C     0.90313   0.37536   0.10818   0.00000  Uiso   1.00
C1080  C     0.87159   0.38431   0.01038   0.00000  Uiso   1.00
C1081  C     0.61460   0.41316   0.00466   0.00000  Uiso   1.00
C1082  C     0.99006   0.40510   0.14612   0.00000  Uiso   1.00
C1083  C     0.82994   0.47382   0.01923   0.00000  Uiso   1.00
C1084  C     0.57356   0.47439   0.02434   0.00000  Uiso   1.00
C1085  C     0.78402   0.41558   0.00681   0.00000  Uiso   1.00
C1086  C     0.57550   0.43657   0.01921   0.00000  Uiso   1.00
C1087  C     0.82947   0.43655   0.01529   0.00000  Uiso   1.00
C1088  C     0.87297   0.41911   0.01509   0.00000  Uiso   1.00
C1089  C     0.53453   0.38851   0.02554   0.00000  Uiso   1.00
C1090  C     0.53342   0.42214   0.02690   0.00000  Uiso   1.00
C1091  C     0.82813   0.36315   0.00139   0.00000  Uiso   1.00
C1092  C     0.69133   0.45307   0.19845   0.00000  Uiso   1.00
C1093  C     0.57181   0.32648   0.00461   0.00000  Uiso   1.00
C1094  C     0.69699   0.45669   0.38327   0.00000  Uiso   1.00
C1095  C     0.73976   0.46206   0.37005   0.00000  Uiso   1.00
C1096  C     0.73912   0.47169   0.34208   0.00000  Uiso   1.00
C1097  C     0.94766   0.47926   0.33106   0.00000  Uiso   1.00
C1098  C     0.69292   0.48703   0.29910   0.00000  Uiso   1.00
C1099  C     0.65137   0.46087   0.36994   0.00000  Uiso   1.00
C1100  C     0.90572   0.46969   0.37662   0.00000  Uiso   1.00
C1101  C     0.69451   0.47534   0.32711   0.00000  Uiso   1.00
C1102  C     0.65243   0.47187   0.34273   0.00000  Uiso   1.00
C1103  C     0.90552   0.48154   0.35127   0.00000  Uiso   1.00
C1104  C     0.94841   0.45652   0.38417   0.00000  Uiso   1.00
C1105  C     0.99269   0.45716   0.36730   0.00000  Uiso   1.00
C1106  C     0.99063   0.46597   0.33914   0.00000  Uiso   1.00
C1107  C     0.94427   0.48949   0.30200   0.00000  Uiso   1.00
C1108  C     0.94287   0.45258   0.20105   0.00000  Uiso   1.00
C1109  C     0.53404   0.31005   0.48187   0.00000  Uiso   1.00
C1110  C     0.53426   0.33916   0.47416   0.00000  Uiso   1.00
C1111  C     0.61831   0.32310   0.50215   0.00000  Uiso   1.00
C1112  C     0.61751   0.35132   0.49258   0.00000  Uiso   1.00
C1113  C     0.57261   0.27587   0.50892   0.00000  Uiso   1.00
C1114  C     0.57529   0.30282   0.49682   0.00000  Uiso   1.00
C1115  C     0.57653   0.35880   0.47743   0.00000  Uiso   1.00
C1116  C     0.57352   0.39301   0.47338   0.00000  Uiso   1.00
C1117  C     0.78018   0.31936   0.49453   0.00000  Uiso   1.00
C1118  C     0.77982   0.34771   0.48684   0.00000  Uiso   1.00
C1119  C     0.86575   0.32529   0.50386   0.00000  Uiso   1.00
C1120  C     0.86601   0.35114   0.49086   0.00000  Uiso   1.00
C1121  C     0.82317   0.30640   0.50207   0.00000  Uiso   1.00
C1122  C     0.82309   0.36177   0.48066   0.00000  Uiso   1.00
C1123  C     0.82093   0.39408   0.47484   0.00000  Uiso   1.00
C1124  C     0.82264   0.49723   0.59210   0.00000  Uiso   1.00
C1125  C     0.82417   0.27373   0.50828   0.00000  Uiso   1.00
C1126  C     0.82314   0.48921   0.55321   0.00000  Uiso   1.00
C1127  C     0.69776   0.25698   0.59595   0.00000  Uiso   1.00
C1128  C     0.94737   0.45176   0.41810   0.00000  Uiso   1.00
C1129  C     0.69730   0.45416   0.41707   0.00000  Uiso   1.00
C1130  C     0.57285   0.48659   0.55307   0.00000  Uiso   1.00
C1131  C     0.57302   0.49274   0.59102   0.00000  Uiso   1.00
C1132  C     0.94407   0.26111   0.59308   0.00000  Uiso   1.00
C1133  C     0.65533   0.34071   0.68150   0.00000  Uiso   1.00
C1134  C     0.74339   0.30221   0.65313   0.00000  Uiso   1.00
C1135  C     0.74264   0.33955   0.68092   0.00000  Uiso   1.00
C1136  C     0.65512   0.30367   0.65342   0.00000  Uiso   1.00
C1137  C     0.69662   0.39994   0.71590   0.00000  Uiso   1.00
C1138  C     0.69804   0.35946   0.69427   0.00000  Uiso   1.00
C1139  C     0.69824   0.28435   0.63611   0.00000  Uiso   1.00
C1140  C     0.82520   0.48633   0.68967   0.00000  Uiso   1.00
C1141  C     0.94946   0.29108   0.63257   0.00000  Uiso   1.00
C1142  C     0.90952   0.34256   0.68476   0.00000  Uiso   1.00
C1143  C     0.90763   0.30717   0.65458   0.00000  Uiso   1.00
C1144  C     0.95353   0.40246   0.71899   0.00000  Uiso   1.00
C1145  C     0.95386   0.36116   0.69577   0.00000  Uiso   1.00
C1146  C     0.99372   0.30863   0.64523   0.00000  Uiso   1.00
C1147  C     0.61649   0.49360   0.64217   0.00000  Uiso   1.00
C1148  C     0.52916   0.49346   0.60899   0.00000  Uiso   1.00
C1149  C     0.99651   0.34220   0.67872   0.00000  Uiso   1.00
C1150  C     0.57444   0.48281   0.68875   0.00000  Uiso   1.00
C1151  C     0.61672   0.49148   0.60792   0.00000  Uiso   1.00
C1152  C     0.52966   0.49448   0.64320   0.00000  Uiso   1.00
C1153  C     0.82380   0.49344   0.65807   0.00000  Uiso   1.00
C1154  C     0.57406   0.49167   0.65797   0.00000  Uiso   1.00
C1155  C     0.86600   0.49822   0.60936   0.00000  Uiso   1.00
C1156  C     0.77917   0.49782   0.60969   0.00000  Uiso   1.00
C1157  C     0.77932   0.49421   0.64111   0.00000  Uiso   1.00
C1158  C     0.86730   0.49827   0.64345   0.00000  Uiso   1.00
C1159  C     0.82708   0.32639   0.99704   0.00000  Uiso   1.00
C1160  C     0.94550   0.49313   0.81171   0.00000  Uiso   1.00
C1161  C     0.98531   0.49949   0.86845   0.00000  Uiso   1.00
C1162  C     0.70113   0.49394   0.85070   0.00000  Uiso   1.00
C1163  C     0.78510   0.37887   0.99779   0.00000  Uiso   1.00
C1164  C     0.65835   0.49580   0.86900   0.00000  Uiso   1.00
C1165  C     0.69951   0.48467   0.81083   0.00000  Uiso   1.00
C1166  C     0.61423   0.37695   0.99903   0.00000  Uiso   1.00
C1167  C     0.70223   0.71789   0.00900   0.00000  Uiso   1.00
C1168  C     0.85702   0.58672   0.19751   0.00000  Uiso   1.00
C1169  C     0.82143   0.56999   0.10318   0.00000  Uiso   1.00
C1170  C     0.70505   0.64521   0.05344   0.00000  Uiso   1.00
C1171  C     0.95257   0.64743   0.05270   0.00000  Uiso   1.00
C1172  C     0.61852   0.58411   0.16008   0.00000  Uiso   1.00
C1173  C     0.95197   0.61105   0.05261   0.00000  Uiso   1.00
C1174  C     0.52998   0.57625   0.15426   0.00000  Uiso   1.00
C1175  C     0.66040   0.68896   0.04329   0.00000  Uiso   1.00
C1176  C     0.57585   0.57903   0.13939   0.00000  Uiso   1.00
C1177  C     0.57845   0.57087   0.10020   0.00000  Uiso   1.00
C1178  C     0.94983   0.69817   0.02667   0.00000  Uiso   1.00
C1179  C     0.66060   0.66241   0.05282   0.00000  Uiso   1.00
C1180  C     0.70225   0.60995   0.05105   0.00000  Uiso   1.00
C1181  C     0.81802   0.57926   0.14193   0.00000  Uiso   1.00
C1182  C     0.70350   0.69506   0.02837   0.00000  Uiso   1.00
C1183  C     0.74882   0.65499   0.04213   0.00000  Uiso   1.00
C1184  C     0.94907   0.72210   0.01016   0.00000  Uiso   1.00
C1185  C     0.90526   0.68489   0.03435   0.00000  Uiso   1.00
C1186  C     0.86112   0.58868   0.16428   0.00000  Uiso   1.00
C1187  C     0.90869   0.65847   0.04564   0.00000  Uiso   1.00
C1188  C     0.74797   0.67928   0.02858   0.00000  Uiso   1.00
C1189  C     0.77346   0.57972   0.15794   0.00000  Uiso   1.00
C1190  C     0.77053   0.57948   0.19179   0.00000  Uiso   1.00
C1191  C     0.99303   0.68788   0.03472   0.00000  Uiso   1.00
C1192  C     0.52949   0.57621   0.18746   0.00000  Uiso   1.00
C1193  C     0.61739   0.57741   0.18953   0.00000  Uiso   1.00
C1194  C     0.99329   0.66354   0.04900   0.00000  Uiso   1.00
C1195  C     0.61278   0.59961   0.38676   0.00000  Uiso   1.00
C1196  C     0.57158   0.56024   0.23180   0.00000  Uiso   1.00
C1197  C     0.56607   0.56335   0.32869   0.00000  Uiso   1.00
C1198  C     0.56769   0.58956   0.36939   0.00000  Uiso   1.00
C1199  C     0.81412   0.55866   0.23109   0.00000  Uiso   1.00
C1200  C     0.78229   0.62058   0.38626   0.00000  Uiso   1.00
C1201  C     0.86717   0.60383   0.38749   0.00000  Uiso   1.00
C1202  C     0.52533   0.60443   0.38988   0.00000  Uiso   1.00
C1203  C     0.82134   0.56769   0.32799   0.00000  Uiso   1.00
C1204  C     0.82364   0.59805   0.36799   0.00000  Uiso   1.00
C1205  C     0.81323   0.57930   0.20958   0.00000  Uiso   1.00
C1206  C     0.57299   0.57348   0.20431   0.00000  Uiso   1.00
C1207  C     0.61522   0.62577   0.42338   0.00000  Uiso   1.00
C1208  C     0.57539   0.68030   0.47951   0.00000  Uiso   1.00
C1209  C     0.86814   0.62990   0.42557   0.00000  Uiso   1.00
C1210  C     0.78224   0.64577   0.42364   0.00000  Uiso   1.00
C1211  C     0.82526   0.64998   0.44207   0.00000  Uiso   1.00
C1212  C     0.65414   0.62506   0.53861   0.00000  Uiso   1.00
C1213  C     0.65301   0.58824   0.53154   0.00000  Uiso   1.00
C1214  C     0.73892   0.62702   0.55262   0.00000  Uiso   1.00
C1215  C     0.73708   0.59125   0.54726   0.00000  Uiso   1.00
C1216  C     0.70158   0.67941   0.54864   0.00000  Uiso   1.00
C1217  C     0.69798   0.64366   0.54787   0.00000  Uiso   1.00
C1218  C     0.69394   0.57115   0.53602   0.00000  Uiso   1.00
C1219  C     0.98832   0.62654   0.54587   0.00000  Uiso   1.00
C1220  C     0.52767   0.63360   0.42621   0.00000  Uiso   1.00
C1221  C     0.94486   0.53096   0.51627   0.00000  Uiso   1.00
C1222  C     0.82621   0.68012   0.48079   0.00000  Uiso   1.00
C1223  C     0.57373   0.64488   0.44363   0.00000  Uiso   1.00
C1224  C     0.69394   0.53018   0.52051   0.00000  Uiso   1.00
C1225  C     0.90057   0.62801   0.54731   0.00000  Uiso   1.00
C1226  C     0.90170   0.59056   0.53884   0.00000  Uiso   1.00
C1227  C     0.94776   0.68264   0.55413   0.00000  Uiso   1.00
C1228  C     0.94486   0.64545   0.55054   0.00000  Uiso   1.00
C1229  C     0.94554   0.57097   0.52939   0.00000  Uiso   1.00
C1230  C     0.99002   0.58863   0.53456   0.00000  Uiso   1.00
C1231  C     0.82101   0.54042   0.79272   0.00000  Uiso   1.00
C1232  C     0.57686   0.54123   0.79281   0.00000  Uiso   1.00
C1233  C     0.74433   0.50549   0.87300   0.00000  Uiso   1.00
C1234  C     0.74552   0.51115   0.90819   0.00000  Uiso   1.00
C1235  C     0.82276   0.58049   0.82034   0.00000  Uiso   1.00
C1236  C     0.53694   0.60230   0.83218   0.00000  Uiso   1.00
C1237  C     0.62553   0.63613   0.85891   0.00000  Uiso   1.00
C1238  C     0.62464   0.59789   0.83277   0.00000  Uiso   1.00
C1239  C     0.53933   0.63852   0.85944   0.00000  Uiso   1.00
C1240  C     0.57920   0.58132   0.81946   0.00000  Uiso   1.00
C1241  C     0.58204   0.69271   0.90854   0.00000  Uiso   1.00
C1242  C     0.58233   0.65578   0.87545   0.00000  Uiso   1.00
C1243  C     0.70205   0.52208   0.96465   0.00000  Uiso   1.00
C1244  C     0.82528   0.69143   0.90879   0.00000  Uiso   1.00
C1245  C     0.78073   0.60183   0.83057   0.00000  Uiso   1.00
C1246  C     0.86888   0.63354   0.86329   0.00000  Uiso   1.00
C1247  C     0.86717   0.59733   0.83611   0.00000  Uiso   1.00
C1248  C     0.78247   0.63836   0.85801   0.00000  Uiso   1.00
C1249  C     0.82621   0.65400   0.87624   0.00000  Uiso   1.00
C1250  C     0.94322   0.51834   0.92621   0.00000  Uiso   1.00
C1251  C     0.94357   0.52564   0.96539   0.00000  Uiso   1.00
C1252  C     0.70170   0.51098   0.92497   0.00000  Uiso   1.00
C1253  C     0.98644   0.50905   0.90560   0.00000  Uiso   1.00
C1254  C     0.94264   0.50236   0.85168   0.00000  Uiso   1.00
C1255  C     0.89881   0.51741   0.90823   0.00000  Uiso   1.00
C1256  C     0.89963   0.51388   0.87301   0.00000  Uiso   1.00
C1257  C     0.65869   0.50015   0.90404   0.00000  Uiso   1.00
C1258  C     0.95201   0.81817   0.02858   0.00000  Uiso   1.00
C1259  C     0.94862   0.94853   0.16993   0.00000  Uiso   1.00
C1260  C     0.65254   0.90512   0.11299   0.00000  Uiso   1.00
C1261  C     0.74215   0.87202   0.08348   0.00000  Uiso   1.00
C1262  C     0.74212   0.90517   0.11696   0.00000  Uiso   1.00
C1263  C     0.65459   0.87323   0.07873   0.00000  Uiso   1.00
C1264  C     0.69515   0.95076   0.17181   0.00000  Uiso   1.00
C1265  C     0.69729   0.91987   0.13277   0.00000  Uiso   1.00
C1266  C     0.70088   0.81699   0.03082   0.00000  Uiso   1.00
C1267  C     0.69978   0.85589   0.06403   0.00000  Uiso   1.00
C1268  C     0.95179   0.85291   0.06318   0.00000  Uiso   1.00
C1269  C     0.99229   0.90265   0.11386   0.00000  Uiso   1.00
C1270  C     0.90526   0.90307   0.11295   0.00000  Uiso   1.00
C1271  C     0.94811   0.91734   0.13152   0.00000  Uiso   1.00
C1272  C     0.90810   0.87096   0.07810   0.00000  Uiso   1.00
C1273  C     0.99348   0.87038   0.07923   0.00000  Uiso   1.00
C1274  C     0.69682   0.95824   0.26587   0.00000  Uiso   1.00
C1275  C     0.94989   0.93989   0.29032   0.00000  Uiso   1.00
C1276  C     0.95248   0.91957   0.34464   0.00000  Uiso   1.00
C1277  C     0.90734   0.93700   0.30703   0.00000  Uiso   1.00
C1278  C     0.69912   0.91756   0.37987   0.00000  Uiso   1.00
C1279  C     0.74106   0.92265   0.32843   0.00000  Uiso   1.00
C1280  C     0.65435   0.93854   0.30581   0.00000  Uiso   1.00
C1281  C     0.65584   0.92909   0.33377   0.00000  Uiso   1.00
C1282  C     0.74014   0.93407   0.30211   0.00000  Uiso   1.00
C1283  C     0.69827   0.92136   0.34505   0.00000  Uiso   1.00
C1284  C     0.90845   0.92657   0.33330   0.00000  Uiso   1.00
C1285  C     0.99347   0.91878   0.32565   0.00000  Uiso   1.00
C1286  C     0.95277   0.91876   0.38064   0.00000  Uiso   1.00
C1287  C     0.69716   0.94159   0.28909   0.00000  Uiso   1.00
C1288  C     0.94865   0.95884   0.26897   0.00000  Uiso   1.00
C1289  C     0.99242   0.92842   0.29780   0.00000  Uiso   1.00
C1290  C     0.53281   0.80637   0.47767   0.00000  Uiso   1.00
C1291  C     0.53199   0.82845   0.46158   0.00000  Uiso   1.00
C1292  C     0.61783   0.80001   0.47120   0.00000  Uiso   1.00
C1293  C     0.61755   0.82439   0.45737   0.00000  Uiso   1.00
C1294  C     0.57600   0.77333   0.50410   0.00000  Uiso   1.00
C1295  C     0.57513   0.79182   0.48306   0.00000  Uiso   1.00
C1296  C     0.57548   0.83868   0.45263   0.00000  Uiso   1.00
C1297  C     0.57677   0.87122   0.44714   0.00000  Uiso   1.00
C1298  C     0.78250   0.80949   0.48351   0.00000  Uiso   1.00
C1299  C     0.78430   0.82984   0.46448   0.00000  Uiso   1.00
C1300  C     0.86933   0.80684   0.48398   0.00000  Uiso   1.00
C1301  C     0.87233   0.82801   0.46647   0.00000  Uiso   1.00
C1302  C     0.82274   0.77522   0.51232   0.00000  Uiso   1.00
C1303  C     0.82462   0.79765   0.49327   0.00000  Uiso   1.00
C1304  C     0.82925   0.84341   0.46022   0.00000  Uiso   1.00
C1305  C     0.82946   0.87366   0.45206   0.00000  Uiso   1.00
C1306  C     0.57820   0.97029   0.51894   0.00000  Uiso   1.00
C1307  C     0.83096   0.96882   0.51871   0.00000  Uiso   1.00
C1308  C     0.78618   0.99340   0.57722   0.00000  Uiso   1.00
C1309  C     0.83156   0.98696   0.55901   0.00000  Uiso   1.00
C1310  C     0.57779   0.98852   0.55933   0.00000  Uiso   1.00
C1311  C     0.62100   0.99836   0.57933   0.00000  Uiso   1.00
C1312  C     0.53379   0.98949   0.57726   0.00000  Uiso   1.00
C1313  C     0.90397   0.85351   0.66005   0.00000  Uiso   1.00
C1314  C     0.69470   0.79588   0.61232   0.00000  Uiso   1.00
C1315  C     0.65765   0.89004   0.69177   0.00000  Uiso   1.00
C1316  C     0.74185   0.85349   0.65314   0.00000  Uiso   1.00
C1317  C     0.74252   0.89174   0.67826   0.00000  Uiso   1.00
C1318  C     0.65611   0.85220   0.66823   0.00000  Uiso   1.00
C1319  C     0.69787   0.95149   0.71028   0.00000  Uiso   1.00
C1320  C     0.69898   0.91071   0.69510   0.00000  Uiso   1.00
C1321  C     0.69891   0.83382   0.64726   0.00000  Uiso   1.00
C1322  C     0.94793   0.91043   0.69071   0.00000  Uiso   1.00
C1323  C     0.94828   0.95127   0.70769   0.00000  Uiso   1.00
C1324  C     0.94586   0.83452   0.64097   0.00000  Uiso   1.00
C1325  C     0.90436   0.89077   0.68273   0.00000  Uiso   1.00
C1326  C     0.94511   0.79711   0.60920   0.00000  Uiso   1.00
C1327  C     0.99204   0.89106   0.68020   0.00000  Uiso   1.00
C1328  C     0.99051   0.85232   0.65389   0.00000  Uiso   1.00
C1329  C     0.52970   0.85399   0.95155   0.00000  Uiso   1.00
C1330  C     0.78440   0.88968   0.95882   0.00000  Uiso   1.00
C1331  C     0.82717   0.83460   0.94747   0.00000  Uiso   1.00
C1332  C     0.57573   0.94571   0.97010   0.00000  Uiso   1.00
C1333  C     0.57267   0.83481   0.94982   0.00000  Uiso   1.00
C1334  C     0.82995   0.94821   0.97007   0.00000  Uiso   1.00
C1335  C     0.61696   0.85078   0.94841   0.00000  Uiso   1.00
C1336  C     0.61720   0.88814   0.95638   0.00000  Uiso   1.00
C1337  C     0.86999   0.85163   0.94703   0.00000  Uiso   1.00
C1338  C     0.87109   0.88773   0.95201   0.00000  Uiso   1.00
C1339  C     0.57432   0.90605   0.95845   0.00000  Uiso   1.00
C1340  C     0.57376   0.80223   0.95478   0.00000  Uiso   1.00
C1341  C     0.82683   0.80145   0.95128   0.00000  Uiso   1.00
C1342  C     0.82884   0.90813   0.95889   0.00000  Uiso   1.00
C1343  C     0.78210   0.85402   0.95321   0.00000  Uiso   1.00
C1344  C     0.53140   0.88901   0.95442   0.00000  Uiso   1.00
O1345  O     0.40441   0.22533   0.01394   0.00000  Uiso   1.00
O1346  O     0.15326   0.23072   0.01797   0.00000  Uiso   1.00
O1347  O     0.37404   0.03440   0.04575   0.00000  Uiso   1.00
O1348  O     0.16395   0.07311   0.02296   0.00000  Uiso   1.00
O1349  O     0.40787   0.07021   0.01759   0.00000  Uiso   1.00
O1350  O     0.49154   0.07020   0.02448   0.00000  Uiso   1.00
O1351  O     0.28941   0.03433   0.04708   0.00000  Uiso   1.00
O1352  O     0.11644   0.04099   0.04715   0.00000  Uiso   1.00
O1353  O     0.24735   0.07211   0.02280   0.00000  Uiso   1.00
O1354  O     0.03351   0.03354   0.04434   0.00000  Uiso   1.00
O1355  O     0.23566   0.23760   0.02251   0.00000  Uiso   1.00
O1356  O     0.48762   0.23323   0.02093   0.00000  Uiso   1.00
O1357  O     0.28044   0.04991   0.28354   0.00000  Uiso   1.00
O1358  O     0.11320   0.05029   0.28544   0.00000  Uiso   1.00
O1359  O     0.36373   0.04425   0.28569   0.00000  Uiso   1.00
O1360  O     0.36733   0.02204   0.20784   0.00000  Uiso   1.00
O1361  O     0.02939   0.04750   0.28582   0.00000  Uiso   1.00
O1362  O     0.02707   0.02785   0.21035   0.00000  Uiso   1.00
O1363  O     0.28419   0.01569   0.20087   0.00000  Uiso   1.00
O1364  O     0.10978   0.02279   0.20594   0.00000  Uiso   1.00
O1365  O     0.02822   0.18347   0.47060   0.00000  Uiso   1.00
O1366  O     0.11147   0.18337   0.46928   0.00000  Uiso   1.00
O1367  O     0.40104   0.17185   0.51140   0.00000  Uiso   1.00
O1368  O     0.15730   0.17309   0.51242   0.00000  Uiso   1.00
O1369  O     0.24002   0.17146   0.50865   0.00000  Uiso   1.00
O1370  O     0.27809   0.18074   0.46626   0.00000  Uiso   1.00
O1371  O     0.36366   0.18767   0.46592   0.00000  Uiso   1.00
O1372  O     0.48473   0.17499   0.51617   0.00000  Uiso   1.00
O1373  O     0.40784   0.24767   0.57283   0.00000  Uiso   1.00
O1374  O     0.15625   0.24866   0.57493   0.00000  Uiso   1.00
O1375  O     0.36316   0.07143   0.77418   0.00000  Uiso   1.00
O1376  O     0.36087   0.02876   0.69373   0.00000  Uiso   1.00
O1377  O     0.03230   0.01898   0.68647   0.00000  Uiso   1.00
O1378  O     0.11161   0.07383   0.77325   0.00000  Uiso   1.00
O1379  O     0.11540   0.02583   0.69229   0.00000  Uiso   1.00
O1380  O     0.02897   0.07536   0.76742   0.00000  Uiso   1.00
O1381  O     0.15633   0.03064   0.78735   0.00000  Uiso   1.00
O1382  O     0.40408   0.02625   0.78411   0.00000  Uiso   1.00
O1383  O     0.27925   0.07040   0.77253   0.00000  Uiso   1.00
O1384  O     0.48825   0.01584   0.77818   0.00000  Uiso   1.00
O1385  O     0.23833   0.02617   0.78503   0.00000  Uiso   1.00
O1386  O     0.27714   0.02075   0.68825   0.00000  Uiso   1.00
O1387  O     0.03336   0.23399   0.93945   0.00000  Uiso   1.00
O1388  O     0.11864   0.23229   0.93746   0.00000  Uiso   1.00
O1389  O     0.36211   0.23708   0.93889   0.00000  Uiso   1.00
O1390  O     0.16006   0.01911   0.94699   0.00000  Uiso   1.00
O1391  O     0.24428   0.02356   0.95162   0.00000  Uiso   1.00
O1392  O     0.49266   0.02045   0.94848   0.00000  Uiso   1.00
O1393  O     0.41236   0.00759   0.93990   0.00000  Uiso   1.00
O1394  O     0.27852   0.23597   0.93813   0.00000  Uiso   1.00
O1395  O     0.28268   0.49135   0.03059   0.00000  Uiso   1.00
O1396  O     0.02877   0.49008   0.02459   0.00000  Uiso   1.00
O1397  O     0.15326   0.30552   0.04161   0.00000  Uiso   1.00
O1398  O     0.23765   0.31026   0.03582   0.00000  Uiso   1.00
O1399  O     0.41032   0.30116   0.04314   0.00000  Uiso   1.00
O1400  O     0.11175   0.48716   0.01599   0.00000  Uiso   1.00
O1401  O     0.36669   0.49116   0.03317   0.00000  Uiso   1.00
O1402  O     0.49182   0.30780   0.04206   0.00000  Uiso   1.00
O1403  O     0.28457   0.30991   0.00066   0.00000  Uiso   1.00
O1404  O     0.40280   0.46998   0.20995   0.00000  Uiso   1.00
O1405  O     0.15480   0.46835   0.21551   0.00000  Uiso   1.00
O1406  O     0.48490   0.46716   0.21770   0.00000  Uiso   1.00
O1407  O     0.23748   0.47356   0.20955   0.00000  Uiso   1.00
O1408  O     0.15125   0.49631   0.29076   0.00000  Uiso   1.00
O1409  O     0.40219   0.49408   0.28879   0.00000  Uiso   1.00
O1410  O     0.40592   0.45704   0.43244   0.00000  Uiso   1.00
O1411  O     0.27608   0.48715   0.53609   0.00000  Uiso   1.00
O1412  O     0.03059   0.41012   0.47950   0.00000  Uiso   1.00
O1413  O     0.28123   0.25428   0.49495   0.00000  Uiso   1.00
O1414  O     0.02826   0.48217   0.53603   0.00000  Uiso   1.00
O1415  O     0.11523   0.40751   0.47367   0.00000  Uiso   1.00
O1416  O     0.48962   0.25413   0.57464   0.00000  Uiso   1.00
O1417  O     0.36082   0.48696   0.53582   0.00000  Uiso   1.00
O1418  O     0.36287   0.26526   0.51143   0.00000  Uiso   1.00
O1419  O     0.27735   0.41126   0.47572   0.00000  Uiso   1.00
O1420  O     0.23890   0.45500   0.43189   0.00000  Uiso   1.00
O1421  O     0.02520   0.25957   0.50824   0.00000  Uiso   1.00
O1422  O     0.36105   0.41098   0.47437   0.00000  Uiso   1.00
O1423  O     0.15397   0.45872   0.43440   0.00000  Uiso   1.00
O1424  O     0.10888   0.26336   0.51352   0.00000  Uiso   1.00
O1425  O     0.11172   0.47854   0.53323   0.00000  Uiso   1.00
O1426  O     0.49038   0.45812   0.43456   0.00000  Uiso   1.00
O1427  O     0.24050   0.25332   0.57171   0.00000  Uiso   1.00
O1428  O     0.48646   0.42179   0.72561   0.00000  Uiso   1.00
O1429  O     0.23603   0.42374   0.72752   0.00000  Uiso   1.00
O1430  O     0.15260   0.42374   0.71435   0.00000  Uiso   1.00
O1431  O     0.40445   0.42376   0.71301   0.00000  Uiso   1.00
O1432  O     0.10912   0.48764   0.70589   0.00000  Uiso   1.00
O1433  O     0.48912   0.49062   0.79828   0.00000  Uiso   1.00
O1434  O     0.02702   0.48555   0.70412   0.00000  Uiso   1.00
O1435  O     0.24302   0.49342   0.79479   0.00000  Uiso   1.00
O1436  O     0.36454   0.49491   0.70808   0.00000  Uiso   1.00
O1437  O     0.40643   0.48701   0.79461   0.00000  Uiso   1.00
O1438  O     0.28121   0.48252   0.70062   0.00000  Uiso   1.00
O1439  O     0.15915   0.48283   0.79224   0.00000  Uiso   1.00
O1440  O     0.11394   0.30779   0.99262   0.00000  Uiso   1.00
O1441  O     0.02979   0.30767   0.99535   0.00000  Uiso   1.00
O1442  O     0.36697   0.30894   0.99787   0.00000  Uiso   1.00
O1443  O     0.23628   0.58741   0.04048   0.00000  Uiso   1.00
O1444  O     0.49274   0.58785   0.04354   0.00000  Uiso   1.00
O1445  O     0.27684   0.57029   0.08329   0.00000  Uiso   1.00
O1446  O     0.11926   0.56233   0.08276   0.00000  Uiso   1.00
O1447  O     0.03390   0.56165   0.08171   0.00000  Uiso   1.00
O1448  O     0.35890   0.56409   0.08625   0.00000  Uiso   1.00
O1449  O     0.15515   0.59350   0.05296   0.00000  Uiso   1.00
O1450  O     0.40973   0.59191   0.05112   0.00000  Uiso   1.00
O1451  O     0.15827   0.72483   0.00476   0.00000  Uiso   1.00
O1452  O     0.24147   0.73302   0.01125   0.00000  Uiso   1.00
O1453  O     0.41269   0.72561   0.00029   0.00000  Uiso   1.00
O1454  O     0.35858   0.55742   0.30771   0.00000  Uiso   1.00
O1455  O     0.10862   0.55656   0.31075   0.00000  Uiso   1.00
O1456  O     0.35778   0.54311   0.22924   0.00000  Uiso   1.00
O1457  O     0.02371   0.55598   0.31236   0.00000  Uiso   1.00
O1458  O     0.02633   0.55036   0.23875   0.00000  Uiso   1.00
O1459  O     0.10954   0.54309   0.23030   0.00000  Uiso   1.00
O1460  O     0.27512   0.54990   0.23531   0.00000  Uiso   1.00
O1461  O     0.27741   0.55939   0.31038   0.00000  Uiso   1.00
O1462  O     0.23478   0.50043   0.29200   0.00000  Uiso   1.00
O1463  O     0.48383   0.50631   0.29938   0.00000  Uiso   1.00
O1464  O     0.02967   0.69452   0.50074   0.00000  Uiso   1.00
O1465  O     0.11513   0.69090   0.50023   0.00000  Uiso   1.00
O1466  O     0.23488   0.51504   0.50557   0.00000  Uiso   1.00
O1467  O     0.15547   0.69944   0.55949   0.00000  Uiso   1.00
O1468  O     0.41415   0.69456   0.54801   0.00000  Uiso   1.00
O1469  O     0.23800   0.69899   0.55797   0.00000  Uiso   1.00
O1470  O     0.28002   0.69787   0.49788   0.00000  Uiso   1.00
O1471  O     0.36341   0.69437   0.49943   0.00000  Uiso   1.00
O1472  O     0.15194   0.51382   0.51023   0.00000  Uiso   1.00
O1473  O     0.40625   0.51423   0.50538   0.00000  Uiso   1.00
O1474  O     0.48921   0.51238   0.51010   0.00000  Uiso   1.00
O1475  O     0.02897   0.52781   0.77869   0.00000  Uiso   1.00
O1476  O     0.11113   0.53031   0.77956   0.00000  Uiso   1.00
O1477  O     0.27456   0.53038   0.77811   0.00000  Uiso   1.00
O1478  O     0.35882   0.52878   0.77743   0.00000  Uiso   1.00
O1479  O     0.49417   0.72264   0.99710   0.00000  Uiso   1.00
O1480  O     0.03399   0.71308   0.92157   0.00000  Uiso   1.00
O1481  O     0.11491   0.70784   0.92623   0.00000  Uiso   1.00
O1482  O     0.41023   0.52167   0.98038   0.00000  Uiso   1.00
O1483  O     0.49321   0.51407   0.97733   0.00000  Uiso   1.00
O1484  O     0.24246   0.52301   0.97637   0.00000  Uiso   1.00
O1485  O     0.15958   0.53114   0.97778   0.00000  Uiso   1.00
O1486  O     0.28286   0.70257   0.92577   0.00000  Uiso   1.00
O1487  O     0.36154   0.71537   0.91569   0.00000  Uiso   1.00
O1488  O     0.24161   0.96426   0.18580   0.00000  Uiso   1.00
O1489  O     0.49580   0.80009   0.01078   0.00000  Uiso   1.00
O1490  O     0.16131   0.80022   0.01835   0.00000  Uiso   1.00
O1491  O     0.24319   0.80121   0.01490   0.00000  Uiso   1.00
O1492  O     0.41207   0.79637   0.01089   0.00000  Uiso   1.00
O1493  O     0.40163   0.95631   0.18755   0.00000  Uiso   1.00
O1494  O     0.15767   0.96301   0.18850   0.00000  Uiso   1.00
O1495  O     0.48784   0.95809   0.18816   0.00000  Uiso   1.00
O1496  O     0.40386   0.95989   0.25584   0.00000  Uiso   1.00
O1497  O     0.15307   0.97814   0.26517   0.00000  Uiso   1.00
O1498  O     0.40445   0.92017   0.39723   0.00000  Uiso   1.00
O1499  O     0.23742   0.96683   0.25467   0.00000  Uiso   1.00
O1500  O     0.48774   0.96356   0.25769   0.00000  Uiso   1.00
O1501  O     0.48691   0.92355   0.39652   0.00000  Uiso   1.00
O1502  O     0.16042   0.91811   0.39361   0.00000  Uiso   1.00
O1503  O     0.24266   0.93287   0.39933   0.00000  Uiso   1.00
O1504  O     0.40369   0.98908   0.46711   0.00000  Uiso   1.00
O1505  O     0.04007   0.88962   0.45424   0.00000  Uiso   1.00
O1506  O     0.12283   0.88694   0.45302   0.00000  Uiso   1.00
O1507  O     0.11722   0.76587   0.52129   0.00000  Uiso   1.00
O1508  O     0.36374   0.96780   0.50440   0.00000  Uiso   1.00
O1509  O     0.12492   0.96024   0.49926   0.00000  Uiso   1.00
O1510  O     0.15404   0.98680   0.46651   0.00000  Uiso   1.00
O1511  O     0.23896   0.98882   0.47293   0.00000  Uiso   1.00
O1512  O     0.03270   0.76489   0.51878   0.00000  Uiso   1.00
O1513  O     0.28050   0.89552   0.45722   0.00000  Uiso   1.00
O1514  O     0.36340   0.89681   0.45981   0.00000  Uiso   1.00
O1515  O     0.27970   0.97071   0.50507   0.00000  Uiso   1.00
O1516  O     0.36475   0.77275   0.52663   0.00000  Uiso   1.00
O1517  O     0.04179   0.96407   0.50190   0.00000  Uiso   1.00
O1518  O     0.48976   0.78018   0.59739   0.00000  Uiso   1.00
O1519  O     0.28063   0.77050   0.52326   0.00000  Uiso   1.00
O1520  O     0.48677   0.98655   0.46943   0.00000  Uiso   1.00
O1521  O     0.23785   0.78112   0.59771   0.00000  Uiso   1.00
O1522  O     0.40627   0.77684   0.59922   0.00000  Uiso   1.00
O1523  O     0.15438   0.77866   0.59794   0.00000  Uiso   1.00
O1524  O     0.23221   0.96673   0.71794   0.00000  Uiso   1.00
O1525  O     0.14682   0.96476   0.71102   0.00000  Uiso   1.00
O1526  O     0.40629   0.96453   0.71032   0.00000  Uiso   1.00
O1527  O     0.48896   0.96276   0.71395   0.00000  Uiso   1.00
O1528  O     0.12334   0.78940   0.95831   0.00000  Uiso   1.00
O1529  O     0.11874   0.96701   0.97837   0.00000  Uiso   1.00
O1530  O     0.28205   0.78742   0.95970   0.00000  Uiso   1.00
O1531  O     0.36640   0.79487   0.96960   0.00000  Uiso   1.00
O1532  O     0.03630   0.96780   0.97607   0.00000  Uiso   1.00
O1533  O     0.36568   0.96494   0.97868   0.00000  Uiso   1.00
O1534  O     0.04069   0.79444   0.96045   0.00000  Uiso   1.00
O1535  O     0.28135   0.96551   0.97555   0.00000  Uiso   1.00
O1536  O     0.62314   0.02900   0.04599   0.00000  Uiso   1.00
O1537  O     0.90846   0.07354   0.02674   0.00000  Uiso   1.00
O1538  O     0.87225   0.03374   0.04924   0.00000  Uiso   1.00
O1539  O     0.99058   0.23072   0.01646   0.00000  Uiso   1.00
O1540  O     0.99221   0.07471   0.02277   0.00000  Uiso   1.00
O1541  O     0.53911   0.03219   0.04898   0.00000  Uiso   1.00
O1542  O     0.74633   0.23343   0.02000   0.00000  Uiso   1.00
O1543  O     0.78776   0.02905   0.04813   0.00000  Uiso   1.00
O1544  O     0.74474   0.07004   0.03017   0.00000  Uiso   1.00
O1545  O     0.66271   0.06682   0.01570   0.00000  Uiso   1.00
O1546  O     0.90996   0.23251   0.01595   0.00000  Uiso   1.00
O1547  O     0.66227   0.22827   0.01574   0.00000  Uiso   1.00
O1548  O     0.77488   0.04526   0.28828   0.00000  Uiso   1.00
O1549  O     0.61052   0.04700   0.28526   0.00000  Uiso   1.00
O1550  O     0.86426   0.02075   0.20770   0.00000  Uiso   1.00
O1551  O     0.77981   0.02462   0.20917   0.00000  Uiso   1.00
O1552  O     0.52564   0.04511   0.28482   0.00000  Uiso   1.00
O1553  O     0.85994   0.04393   0.28923   0.00000  Uiso   1.00
O1554  O     0.52599   0.01383   0.20034   0.00000  Uiso   1.00
O1555  O     0.61123   0.02098   0.20683   0.00000  Uiso   1.00
O1556  O     0.52931   0.18401   0.47147   0.00000  Uiso   1.00
O1557  O     0.61413   0.18222   0.47238   0.00000  Uiso   1.00
O1558  O     0.90749   0.17598   0.52516   0.00000  Uiso   1.00
O1559  O     0.65537   0.24754   0.57832   0.00000  Uiso   1.00
O1560  O     0.65077   0.17114   0.51549   0.00000  Uiso   1.00
O1561  O     0.73500   0.17222   0.51716   0.00000  Uiso   1.00
O1562  O     0.77391   0.18372   0.47308   0.00000  Uiso   1.00
O1563  O     0.85971   0.17992   0.47386   0.00000  Uiso   1.00
O1564  O     0.98925   0.17133   0.51238   0.00000  Uiso   1.00
O1565  O     0.98454   0.24719   0.57268   0.00000  Uiso   1.00
O1566  O     0.90629   0.03507   0.78825   0.00000  Uiso   1.00
O1567  O     0.78556   0.01701   0.68783   0.00000  Uiso   1.00
O1568  O     0.74344   0.02429   0.78532   0.00000  Uiso   1.00
O1569  O     0.53219   0.01349   0.68587   0.00000  Uiso   1.00
O1570  O     0.86834   0.02234   0.68957   0.00000  Uiso   1.00
O1571  O     0.78140   0.07113   0.77662   0.00000  Uiso   1.00
O1572  O     0.60935   0.07048   0.77695   0.00000  Uiso   1.00
O1573  O     0.52455   0.07000   0.76979   0.00000  Uiso   1.00
O1574  O     0.86330   0.07619   0.76650   0.00000  Uiso   1.00
O1575  O     0.66021   0.02375   0.78548   0.00000  Uiso   1.00
O1576  O     0.99045   0.03580   0.78720   0.00000  Uiso   1.00
O1577  O     0.61530   0.02274   0.69169   0.00000  Uiso   1.00
O1578  O     0.99302   0.02612   0.95018   0.00000  Uiso   1.00
O1579  O     0.52936   0.23077   0.94239   0.00000  Uiso   1.00
O1580  O     0.61179   0.22702   0.94446   0.00000  Uiso   1.00
O1581  O     0.86472   0.23389   0.93885   0.00000  Uiso   1.00
O1582  O     0.90826   0.02582   0.95088   0.00000  Uiso   1.00
O1583  O     0.66167   0.00270   0.94118   0.00000  Uiso   1.00
O1584  O     0.78020   0.23781   0.93975   0.00000  Uiso   1.00
O1585  O     0.74321   0.02178   0.95150   0.00000  Uiso   1.00
O1586  O     0.65567   0.30249   0.04671   0.00000  Uiso   1.00
O1587  O     0.73810   0.30942   0.04043   0.00000  Uiso   1.00
O1588  O     0.90605   0.30910   0.03713   0.00000  Uiso   1.00
O1589  O     0.78815   0.48687   0.01562   0.00000  Uiso   1.00
O1590  O     0.86969   0.49512   0.03037   0.00000  Uiso   1.00
O1591  O     0.53130   0.49122   0.03019   0.00000  Uiso   1.00
O1592  O     0.61457   0.48967   0.02120   0.00000  Uiso   1.00
O1593  O     0.99030   0.30785   0.04177   0.00000  Uiso   1.00
O1594  O     0.61275   0.31067   0.00594   0.00000  Uiso   1.00
O1595  O     0.90108   0.49805   0.29309   0.00000  Uiso   1.00
O1596  O     0.98469   0.46968   0.21514   0.00000  Uiso   1.00
O1597  O     0.90025   0.46655   0.21532   0.00000  Uiso   1.00
O1598  O     0.64975   0.46769   0.21193   0.00000  Uiso   1.00
O1599  O     0.73211   0.46975   0.21490   0.00000  Uiso   1.00
O1600  O     0.98524   0.49391   0.29033   0.00000  Uiso   1.00
O1601  O     0.65160   0.48767   0.28528   0.00000  Uiso   1.00
O1602  O     0.52945   0.48315   0.53574   0.00000  Uiso   1.00
O1603  O     0.53157   0.40906   0.47688   0.00000  Uiso   1.00
O1604  O     0.61487   0.48028   0.53442   0.00000  Uiso   1.00
O1605  O     0.78265   0.26061   0.51235   0.00000  Uiso   1.00
O1606  O     0.61655   0.40949   0.47496   0.00000  Uiso   1.00
O1607  O     0.90534   0.45468   0.43436   0.00000  Uiso   1.00
O1608  O     0.98718   0.45123   0.43373   0.00000  Uiso   1.00
O1609  O     0.65555   0.45435   0.43215   0.00000  Uiso   1.00
O1610  O     0.53095   0.26195   0.51050   0.00000  Uiso   1.00
O1611  O     0.89993   0.25576   0.57729   0.00000  Uiso   1.00
O1612  O     0.61307   0.25914   0.51051   0.00000  Uiso   1.00
O1613  O     0.77893   0.40696   0.47178   0.00000  Uiso   1.00
O1614  O     0.73967   0.46126   0.43483   0.00000  Uiso   1.00
O1615  O     0.86060   0.41420   0.48337   0.00000  Uiso   1.00
O1616  O     0.86501   0.48599   0.53698   0.00000  Uiso   1.00
O1617  O     0.78325   0.48013   0.53540   0.00000  Uiso   1.00
O1618  O     0.86615   0.26511   0.51760   0.00000  Uiso   1.00
O1619  O     0.73949   0.25141   0.57785   0.00000  Uiso   1.00
O1620  O     0.78367   0.48483   0.70498   0.00000  Uiso   1.00
O1621  O     0.73834   0.41819   0.72106   0.00000  Uiso   1.00
O1622  O     0.65560   0.41706   0.72276   0.00000  Uiso   1.00
O1623  O     0.91297   0.41980   0.72478   0.00000  Uiso   1.00
O1624  O     0.98718   0.49336   0.79785   0.00000  Uiso   1.00
O1625  O     0.74017   0.48281   0.79400   0.00000  Uiso   1.00
O1626  O     0.65736   0.47927   0.79375   0.00000  Uiso   1.00
O1627  O     0.99424   0.42129   0.72619   0.00000  Uiso   1.00
O1628  O     0.61762   0.47921   0.70123   0.00000  Uiso   1.00
O1629  O     0.53234   0.47958   0.70200   0.00000  Uiso   1.00
O1630  O     0.90276   0.48763   0.79378   0.00000  Uiso   1.00
O1631  O     0.86855   0.48257   0.70177   0.00000  Uiso   1.00
O1632  O     0.78426   0.31234   0.99628   0.00000  Uiso   1.00
O1633  O     0.86948   0.30938   0.99282   0.00000  Uiso   1.00
O1634  O     0.53047   0.30990   0.99846   0.00000  Uiso   1.00
O1635  O     0.74173   0.59280   0.05152   0.00000  Uiso   1.00
O1636  O     0.91025   0.59634   0.05229   0.00000  Uiso   1.00
O1637  O     0.65873   0.59330   0.04079   0.00000  Uiso   1.00
O1638  O     0.53638   0.56772   0.08341   0.00000  Uiso   1.00
O1639  O     0.78029   0.56192   0.08507   0.00000  Uiso   1.00
O1640  O     0.62045   0.56075   0.08362   0.00000  Uiso   1.00
O1641  O     0.86382   0.56728   0.08848   0.00000  Uiso   1.00
O1642  O     0.65921   0.72511   0.00267   0.00000  Uiso   1.00
O1643  O     0.99435   0.59416   0.04787   0.00000  Uiso   1.00
O1644  O     0.99185   0.73198   0.00262   0.00000  Uiso   1.00
O1645  O     0.85578   0.54661   0.23515   0.00000  Uiso   1.00
O1646  O     0.61174   0.54701   0.23684   0.00000  Uiso   1.00
O1647  O     0.60894   0.54870   0.31229   0.00000  Uiso   1.00
O1648  O     0.86258   0.55427   0.31024   0.00000  Uiso   1.00
O1649  O     0.52534   0.55962   0.31087   0.00000  Uiso   1.00
O1650  O     0.53074   0.55263   0.24068   0.00000  Uiso   1.00
O1651  O     0.77836   0.55683   0.31027   0.00000  Uiso   1.00
O1652  O     0.77348   0.55080   0.24136   0.00000  Uiso   1.00
O1653  O     0.73230   0.50226   0.29573   0.00000  Uiso   1.00
O1654  O     0.50004   0.69545   0.54960   0.00000  Uiso   1.00
O1655  O     0.53411   0.69598   0.49571   0.00000  Uiso   1.00
O1656  O     0.61933   0.69364   0.49668   0.00000  Uiso   1.00
O1657  O     0.66076   0.69716   0.55059   0.00000  Uiso   1.00
O1658  O     0.74515   0.69142   0.54631   0.00000  Uiso   1.00
O1659  O     0.78433   0.69618   0.49543   0.00000  Uiso   1.00
O1660  O     0.86764   0.69281   0.49595   0.00000  Uiso   1.00
O1661  O     0.98875   0.51343   0.50826   0.00000  Uiso   1.00
O1662  O     0.65360   0.51301   0.50598   0.00000  Uiso   1.00
O1663  O     0.73662   0.51193   0.51125   0.00000  Uiso   1.00
O1664  O     0.90384   0.51356   0.50650   0.00000  Uiso   1.00
O1665  O     0.90731   0.69655   0.55137   0.00000  Uiso   1.00
O1666  O     0.99090   0.69728   0.55496   0.00000  Uiso   1.00
O1667  O     0.86463   0.52292   0.77959   0.00000  Uiso   1.00
O1668  O     0.53404   0.52669   0.78086   0.00000  Uiso   1.00
O1669  O     0.77952   0.52373   0.78104   0.00000  Uiso   1.00
O1670  O     0.61781   0.52415   0.78073   0.00000  Uiso   1.00
O1671  O     0.65954   0.52050   0.97780   0.00000  Uiso   1.00
O1672  O     0.78375   0.70711   0.92279   0.00000  Uiso   1.00
O1673  O     0.53960   0.70855   0.92038   0.00000  Uiso   1.00
O1674  O     0.62341   0.70474   0.92568   0.00000  Uiso   1.00
O1675  O     0.86704   0.70671   0.92308   0.00000  Uiso   1.00
O1676  O     0.74206   0.53517   0.98286   0.00000  Uiso   1.00
O1677  O     0.90367   0.52940   0.98374   0.00000  Uiso   1.00
O1678  O     0.98561   0.52861   0.97918   0.00000  Uiso   1.00
O1679  O     0.74399   0.72750   0.99979   0.00000  Uiso   1.00
O1680  O     0.90602   0.72773   0.99955   0.00000  Uiso   1.00
O1681  O     0.66060   0.79878   0.01657   0.00000  Uiso   1.00
O1682  O     0.90749   0.96180   0.18534   0.00000  Uiso   1.00
O1683  O     0.65245   0.96525   0.18827   0.00000  Uiso   1.00
O1684  O     0.74291   0.80115   0.01609   0.00000  Uiso   1.00
O1685  O     0.90897   0.80343   0.01509   0.00000  Uiso   1.00
O1686  O     0.73638   0.96260   0.18980   0.00000  Uiso   1.00
O1687  O     0.99344   0.80263   0.01477   0.00000  Uiso   1.00
O1688  O     0.99073   0.96210   0.18670   0.00000  Uiso   1.00
O1689  O     0.65881   0.91927   0.39624   0.00000  Uiso   1.00
O1690  O     0.65469   0.96575   0.25609   0.00000  Uiso   1.00
O1691  O     0.73841   0.97012   0.26133   0.00000  Uiso   1.00
O1692  O     0.90659   0.96420   0.25841   0.00000  Uiso   1.00
O1693  O     0.91178   0.91957   0.39544   0.00000  Uiso   1.00
O1694  O     0.99591   0.92469   0.39682   0.00000  Uiso   1.00
O1695  O     0.74170   0.92087   0.39553   0.00000  Uiso   1.00
O1696  O     0.98922   0.97125   0.26370   0.00000  Uiso   1.00
O1697  O     0.90325   0.78355   0.59391   0.00000  Uiso   1.00
O1698  O     0.61738   0.76124   0.50956   0.00000  Uiso   1.00
O1699  O     0.53527   0.88504   0.44403   0.00000  Uiso   1.00
O1700  O     0.61966   0.88652   0.45099   0.00000  Uiso   1.00
O1701  O     0.87289   0.95638   0.50053   0.00000  Uiso   1.00
O1702  O     0.78937   0.96440   0.50216   0.00000  Uiso   1.00
O1703  O     0.65866   0.98314   0.46702   0.00000  Uiso   1.00
O1704  O     0.61924   0.95974   0.50079   0.00000  Uiso   1.00
O1705  O     0.74398   0.98638   0.46491   0.00000  Uiso   1.00
O1706  O     0.73620   0.77676   0.59928   0.00000  Uiso   1.00
O1707  O     0.78320   0.77451   0.52906   0.00000  Uiso   1.00
O1708  O     0.78663   0.89038   0.45252   0.00000  Uiso   1.00
O1709  O     0.91099   0.98494   0.46853   0.00000  Uiso   1.00
O1710  O     0.87166   0.88471   0.44723   0.00000  Uiso   1.00
O1711  O     0.53777   0.96294   0.50163   0.00000  Uiso   1.00
O1712  O     0.86455   0.76288   0.51707   0.00000  Uiso   1.00
O1713  O     0.53485   0.77005   0.51844   0.00000  Uiso   1.00
O1714  O     0.99598   0.98828   0.46965   0.00000  Uiso   1.00
O1715  O     0.98666   0.78183   0.59393   0.00000  Uiso   1.00
O1716  O     0.65573   0.78612   0.59199   0.00000  Uiso   1.00
O1717  O     0.73961   0.96751   0.71521   0.00000  Uiso   1.00
O1718  O     0.65465   0.96731   0.71529   0.00000  Uiso   1.00
O1719  O     0.90749   0.96823   0.71425   0.00000  Uiso   1.00
O1720  O     0.98966   0.96813   0.71554   0.00000  Uiso   1.00
O1721  O     0.53409   0.96258   0.97479   0.00000  Uiso   1.00
O1722  O     0.86800   0.78638   0.95303   0.00000  Uiso   1.00
O1723  O     0.61878   0.96078   0.97537   0.00000  Uiso   1.00
O1724  O     0.87154   0.96496   0.97395   0.00000  Uiso   1.00
O1725  O     0.61599   0.79082   0.95973   0.00000  Uiso   1.00
O1726  O     0.53112   0.78683   0.95408   0.00000  Uiso   1.00
O1727  O     0.78772   0.96433   0.97587   0.00000  Uiso   1.00
O1728  O     0.78623   0.79141   0.95697   0.00000  Uiso   1.00
O1729  O     0.31999   0.24139   0.00303   0.00000  Uiso   1.00
O1730  O     0.07160   0.23901   0.00008   0.00000  Uiso   1.00
O1731  O     0.44600   0.02367   0.25815   0.00000  Uiso   1.00
O1732  O     0.19879   0.03072   0.25455   0.00000  Uiso   1.00
O1733  O     0.32007   0.23373   0.54852   0.00000  Uiso   1.00
O1734  O     0.19630   0.23901   0.50848   0.00000  Uiso   1.00
O1735  O     0.07199   0.22685   0.54710   0.00000  Uiso   1.00
O1736  O     0.44815   0.24158   0.50881   0.00000  Uiso   1.00
O1737  O     0.44521   0.03074   0.71835   0.00000  Uiso   1.00
O1738  O     0.19642   0.02766   0.71797   0.00000  Uiso   1.00
O1739  O     0.44716   0.24054   0.96486   0.00000  Uiso   1.00
O1740  O     0.32784   0.02096   0.96945   0.00000  Uiso   1.00
O1741  O     0.19831   0.24227   0.96621   0.00000  Uiso   1.00
O1742  O     0.07709   0.02638   0.97046   0.00000  Uiso   1.00
O1743  O     0.06607   0.49085   0.23755   0.00000  Uiso   1.00
O1744  O     0.31790   0.49122   0.24687   0.00000  Uiso   1.00
O1745  O     0.19437   0.43482   0.48069   0.00000  Uiso   1.00
O1746  O     0.07130   0.45929   0.45694   0.00000  Uiso   1.00
O1747  O     0.32205   0.45874   0.45468   0.00000  Uiso   1.00
O1748  O     0.44593   0.43225   0.47711   0.00000  Uiso   1.00
O1749  O     0.44677   0.48589   0.72682   0.00000  Uiso   1.00
O1750  O     0.07277   0.44639   0.73843   0.00000  Uiso   1.00
O1751  O     0.32106   0.44842   0.74026   0.00000  Uiso   1.00
O1752  O     0.19607   0.48468   0.72254   0.00000  Uiso   1.00
O1753  O     0.44866   0.52077   0.04029   0.00000  Uiso   1.00
O1754  O     0.32501   0.53740   0.00566   0.00000  Uiso   1.00
O1755  O     0.07389   0.54005   0.00428   0.00000  Uiso   1.00
O1756  O     0.19770   0.51069   0.02899   0.00000  Uiso   1.00
O1757  O     0.44196   0.54014   0.25678   0.00000  Uiso   1.00
O1758  O     0.19040   0.54279   0.25678   0.00000  Uiso   1.00
O1759  O     0.19485   0.74990   0.53029   0.00000  Uiso   1.00
O1760  O     0.32707   0.73474   0.98625   0.00000  Uiso   1.00
O1761  O     0.45020   0.72707   0.93894   0.00000  Uiso   1.00
O1762  O     0.20256   0.73104   0.94512   0.00000  Uiso   1.00
O1763  O     0.07529   0.74466   0.99175   0.00000  Uiso   1.00
O1764  O     0.07350   0.97722   0.23812   0.00000  Uiso   1.00
O1765  O     0.31897   0.97938   0.24755   0.00000  Uiso   1.00
O1766  O     0.44745   0.90925   0.44844   0.00000  Uiso   1.00
O1767  O     0.07304   0.75424   0.57703   0.00000  Uiso   1.00
O1768  O     0.32439   0.93266   0.42280   0.00000  Uiso   1.00
O1769  O     0.20251   0.90713   0.44457   0.00000  Uiso   1.00
O1770  O     0.07849   0.92576   0.41775   0.00000  Uiso   1.00
O1771  O     0.32267   0.75395   0.57581   0.00000  Uiso   1.00
O1772  O     0.45158   0.75243   0.52777   0.00000  Uiso   1.00
O1773  O     0.31854   0.99219   0.72511   0.00000  Uiso   1.00
O1774  O     0.07441   0.99225   0.73288   0.00000  Uiso   1.00
O1775  O     0.20098   0.99341   0.99309   0.00000  Uiso   1.00
O1776  O     0.45254   0.99342   0.99118   0.00000  Uiso   1.00
O1777  O     0.57183   0.24360   0.00764   0.00000  Uiso   1.00
O1778  O     0.82258   0.24631   0.00437   0.00000  Uiso   1.00
O1779  O     0.94526   0.02969   0.25752   0.00000  Uiso   1.00
O1780  O     0.69662   0.02810   0.25799   0.00000  Uiso   1.00
O1781  O     0.69450   0.23639   0.51178   0.00000  Uiso   1.00
O1782  O     0.56962   0.22556   0.54629   0.00000  Uiso   1.00
O1783  O     0.94175   0.23549   0.50823   0.00000  Uiso   1.00
O1784  O     0.81798   0.22390   0.54686   0.00000  Uiso   1.00
O1785  O     0.69998   0.03579   0.72347   0.00000  Uiso   1.00
O1786  O     0.94846   0.02920   0.71709   0.00000  Uiso   1.00
O1787  O     0.57542   0.02536   0.97667   0.00000  Uiso   1.00
O1788  O     0.82439   0.02602   0.97560   0.00000  Uiso   1.00
O1789  O     0.94900   0.24373   0.96476   0.00000  Uiso   1.00
O1790  O     0.69655   0.24834   0.96699   0.00000  Uiso   1.00
O1791  O     0.56528   0.48712   0.24084   0.00000  Uiso   1.00
O1792  O     0.81554   0.48743   0.23803   0.00000  Uiso   1.00
O1793  O     0.82368   0.45913   0.45693   0.00000  Uiso   1.00
O1794  O     0.69971   0.43196   0.47748   0.00000  Uiso   1.00
O1795  O     0.57059   0.45526   0.45558   0.00000  Uiso   1.00
O1796  O     0.94605   0.43564   0.48315   0.00000  Uiso   1.00
O1797  O     0.82393   0.44231   0.72986   0.00000  Uiso   1.00
O1798  O     0.56781   0.44458   0.73880   0.00000  Uiso   1.00
O1799  O     0.94959   0.48115   0.72495   0.00000  Uiso   1.00
O1800  O     0.69665   0.47778   0.72153   0.00000  Uiso   1.00
O1801  O     0.94792   0.52042   0.03818   0.00000  Uiso   1.00
O1802  O     0.57512   0.54025   0.00555   0.00000  Uiso   1.00
O1803  O     0.70308   0.51398   0.03039   0.00000  Uiso   1.00
O1804  O     0.82945   0.54712   0.01038   0.00000  Uiso   1.00
O1805  O     0.68878   0.53806   0.25589   0.00000  Uiso   1.00
O1806  O     0.94100   0.53693   0.25104   0.00000  Uiso   1.00
O1807  O     0.94773   0.74829   0.52875   0.00000  Uiso   1.00
O1808  O     0.70010   0.73725   0.94624   0.00000  Uiso   1.00
O1809  O     0.95234   0.73408   0.94562   0.00000  Uiso   1.00
O1810  O     0.82478   0.74743   0.99502   0.00000  Uiso   1.00
O1811  O     0.57307   0.74342   0.99162   0.00000  Uiso   1.00
O1812  O     0.82072   0.97853   0.24003   0.00000  Uiso   1.00
O1813  O     0.57207   0.97867   0.24401   0.00000  Uiso   1.00
O1814  O     0.57374   0.93076   0.42296   0.00000  Uiso   1.00
O1815  O     0.83150   0.93140   0.42181   0.00000  Uiso   1.00
O1816  O     0.95703   0.90957   0.44769   0.00000  Uiso   1.00
O1817  O     0.70480   0.90829   0.44920   0.00000  Uiso   1.00
O1818  O     0.82461   0.75162   0.57545   0.00000  Uiso   1.00
O1819  O     0.70243   0.75030   0.52743   0.00000  Uiso   1.00
O1820  O     0.57807   0.75681   0.57309   0.00000  Uiso   1.00
O1821  O     0.82628   0.99361   0.72998   0.00000  Uiso   1.00
O1822  O     0.57264   0.99231   0.73072   0.00000  Uiso   1.00
O1823  O     0.95101   0.99449   0.98817   0.00000  Uiso   1.00
O1824  O     0.70546   0.99136   0.99557   0.00000  Uiso   1.00
N1825  N     0.02404   0.33703   0.17191   0.00000  Uiso   1.00
N1826  N     0.02243   0.95996   0.84222   0.00000  Uiso   1.00
N1827  N     0.95794   0.30988   0.14083   0.00000  Uiso   1.00
N1828  N     0.95004   0.93518   0.84086   0.00000  Uiso   1.00
C1829  C     0.03846   0.30796   0.13986   0.00000  Uiso   1.00
C1830  C     0.02087   0.95254   0.87107   0.00000  Uiso   1.00
C1831  C     0.97547   0.33845   0.17182   0.00000  Uiso   1.00
C1832  C     0.99704   0.28917   0.12010   0.00000  Uiso   1.00
C1833  C     0.97803   0.94943   0.82526   0.00000  Uiso   1.00
C1834  C     0.97596   0.93587   0.86864   0.00000  Uiso   1.00
C1835  C     0.05670   0.35675   0.20361   0.00000  Uiso   1.00
C1836  C     0.17744   0.91780   0.77578   0.00000  Uiso   1.00
C1837  C     0.13723   0.94765   0.79064   0.00000  Uiso   1.00
C1838  C     0.06598   0.97136   0.82872   0.00000  Uiso   1.00
C1839  C     0.09710   0.93659   0.80885   0.00000  Uiso   1.00
C1840  C     0.81651   0.22872   0.12138   0.00000  Uiso   1.00
C1841  C     0.84007   0.25920   0.11662   0.00000  Uiso   1.00
C1842  C     0.88790   0.27077   0.13371   0.00000  Uiso   1.00
C1843  C     0.90679   0.30263   0.12988   0.00000  Uiso   1.00
C1844  C     0.89736   0.92699   0.83528   0.00000  Uiso   1.00
H1845  H     0.09428   0.35257   0.19401   0.00000  Uiso   1.00
H1846  H     0.07683   0.29875   0.13199   0.00000  Uiso   1.00
H1847  H     0.04758   0.38559   0.21966   0.00000  Uiso   1.00
H1848  H     0.05525   0.34638   0.22214   0.00000  Uiso   1.00
H1849  H     0.16592   0.89052   0.75492   0.00000  Uiso   1.00
H1850  H     0.12505   0.95047   0.76673   0.00000  Uiso   1.00
H1851  H     0.20659   0.92600   0.76456   0.00000  Uiso   1.00
H1852  H     0.19218   0.91527   0.79817   0.00000  Uiso   1.00
H1853  H     0.07603   0.91368   0.78611   0.00000  Uiso   1.00
H1854  H     0.04815   0.96013   0.89339   0.00000  Uiso   1.00
H1855  H     0.11358   0.92868   0.82937   0.00000  Uiso   1.00
H1856  H     0.08259   0.99610   0.85420   0.00000  Uiso   1.00
H1857  H     0.15246   0.97435   0.80978   0.00000  Uiso   1.00
H1858  H     0.05290   0.98085   0.80904   0.00000  Uiso   1.00
H1859  H     0.91066   0.24692   0.12105   0.00000  Uiso   1.00
H1860  H     0.83999   0.20427   0.10482   0.00000  Uiso   1.00
H1861  H     0.77758   0.22169   0.11185   0.00000  Uiso   1.00
H1862  H     0.82233   0.23964   0.15214   0.00000  Uiso   1.00
H1863  H     0.84506   0.24741   0.08519   0.00000  Uiso   1.00
H1864  H     0.81401   0.28240   0.12796   0.00000  Uiso   1.00
H1865  H     0.88684   0.28065   0.16496   0.00000  Uiso   1.00
H1866  H     0.90581   0.29534   0.09948   0.00000  Uiso   1.00
H1867  H     0.99585   0.26439   0.09506   0.00000  Uiso   1.00
H1868  H     0.88367   0.32740   0.14385   0.00000  Uiso   1.00
H1869  H     0.95361   0.35568   0.19587   0.00000  Uiso   1.00
H1870  H     0.87894   0.95186   0.85484   0.00000  Uiso   1.00
H1871  H     0.96024   0.93341   0.89165   0.00000  Uiso   1.00
H1872  H     0.88709   0.90468   0.84164   0.00000  Uiso   1.00
H1873  H     0.88388   0.91727   0.80659   0.00000  Uiso   1.00
H1874  H     0.96735   0.95250   0.80184   0.00000  Uiso   1.00
B1875  B     0.78031   0.37580   0.21866   0.00000  Uiso   1.00
B1876  B     0.53518   0.91743   0.86151   0.00000  Uiso   1.00
F1877  F     0.49672   0.89166   0.83641   0.00000  Uiso   1.00
F1878  F     0.76628   0.34359   0.18546   0.00000  Uiso   1.00
F1879  F     0.78071   0.36753   0.24835   0.00000  Uiso   1.00
F1880  F     0.82750   0.38794   0.21267   0.00000  Uiso   1.00
F1881  F     0.74608   0.40414   0.22998   0.00000  Uiso   1.00
F1882  F     0.52949   0.95368   0.86600   0.00000  Uiso   1.00
F1883  F     0.52721   0.91974   0.89762   0.00000  Uiso   1.00
F1884  F     0.58207   0.90056   0.84572   0.00000  Uiso   1.00
