data_final_LOQLIN_clean
_audit_creation_date              2023-02-20
_audit_creation_method            'Materials Studio'
_symmetry_space_group_name_H-M    'P1'
_symmetry_Int_Tables_number       1
_symmetry_cell_setting            triclinic
loop_
_symmetry_equiv_pos_as_xyz
  x,y,z
_cell_length_a                    26.0363
_cell_length_b                    40.8869
_cell_length_c                    40.9080
_cell_angle_alpha                 119.9830
_cell_angle_beta                  90.0000
_cell_angle_gamma                 90.0000
loop_
_atom_site_label
_atom_site_type_symbol
_atom_site_fract_x
_atom_site_fract_y
_atom_site_fract_z
_atom_site_U_iso_or_equiv
_atom_site_adp_type
_atom_site_occupancy
Ga1    Ga    0.37349   0.24182   0.24666   0.00000  Uiso   1.00
Ga2    Ga    0.37369   0.01918   0.29713   0.00000  Uiso   1.00
Ga3    Ga    0.24640   0.01841   0.29321   0.00000  Uiso   1.00
Ga4    Ga    0.12300   0.01988   0.29780   0.00000  Uiso   1.00
Ga5    Ga    0.24818   0.24605   0.24911   0.00000  Uiso   1.00
Ga6    Ga    0.12346   0.24755   0.24614   0.00000  Uiso   1.00
Ga7    Ga    0.49480   0.03895   0.81013   0.00000  Uiso   1.00
Ga8    Ga    0.24407   0.03997   0.81144   0.00000  Uiso   1.00
Ga9    Ga    0.12013   0.03377   0.80810   0.00000  Uiso   1.00
Ga10   Ga    0.37014   0.03922   0.81093   0.00000  Uiso   1.00
Ga11   Ga    0.49653   0.46407   0.19158   0.00000  Uiso   1.00
Ga12   Ga    0.24427   0.46639   0.19117   0.00000  Uiso   1.00
Ga13   Ga    0.36841   0.46386   0.18896   0.00000  Uiso   1.00
Ga14   Ga    0.12185   0.45823   0.18671   0.00000  Uiso   1.00
Ga15   Ga    0.25280   0.47687   0.70087   0.00000  Uiso   1.00
Ga16   Ga    0.12450   0.47726   0.70302   0.00000  Uiso   1.00
Ga17   Ga    0.37729   0.47389   0.70017   0.00000  Uiso   1.00
Ga18   Ga    0.37385   0.25516   0.75350   0.00000  Uiso   1.00
Ga19   Ga    0.00192   0.48059   0.70291   0.00000  Uiso   1.00
Ga20   Ga    0.12186   0.25714   0.74636   0.00000  Uiso   1.00
Ga21   Ga    0.24792   0.25204   0.74806   0.00000  Uiso   1.00
Ga22   Ga    0.25224   0.74589   0.25613   0.00000  Uiso   1.00
Ga23   Ga    0.00764   0.74968   0.26211   0.00000  Uiso   1.00
Ga24   Ga    0.38129   0.74775   0.26284   0.00000  Uiso   1.00
Ga25   Ga    0.12833   0.74746   0.26337   0.00000  Uiso   1.00
Ga26   Ga    0.13006   0.52241   0.47123   0.00000  Uiso   1.00
Ga27   Ga    0.25414   0.51921   0.47204   0.00000  Uiso   1.00
Ga28   Ga    0.37863   0.51648   0.46907   0.00000  Uiso   1.00
Ga29   Ga    0.00396   0.52043   0.46813   0.00000  Uiso   1.00
Ga30   Ga    0.37152   0.53270   0.97927   0.00000  Uiso   1.00
Ga31   Ga    0.24834   0.53496   0.98062   0.00000  Uiso   1.00
Ga32   Ga    0.12400   0.53416   0.98048   0.00000  Uiso   1.00
Ga33   Ga    0.49704   0.53217   0.97713   0.00000  Uiso   1.00
Ga34   Ga    0.25141   0.96921   0.02239   0.00000  Uiso   1.00
Ga35   Ga    0.12558   0.96867   0.01959   0.00000  Uiso   1.00
Ga36   Ga    0.37832   0.96509   0.02313   0.00000  Uiso   1.00
Ga37   Ga    0.00217   0.96870   0.01913   0.00000  Uiso   1.00
Ga38   Ga    0.37466   0.97838   0.52917   0.00000  Uiso   1.00
Ga39   Ga    0.24891   0.97852   0.52829   0.00000  Uiso   1.00
Ga40   Ga    0.12332   0.97890   0.52669   0.00000  Uiso   1.00
Ga41   Ga    0.49852   0.98089   0.53112   0.00000  Uiso   1.00
Ga42   Ga    0.12320   0.75439   0.73494   0.00000  Uiso   1.00
Ga43   Ga    0.37357   0.75422   0.74047   0.00000  Uiso   1.00
Ga44   Ga    0.49875   0.75509   0.73996   0.00000  Uiso   1.00
Ga45   Ga    0.24646   0.75151   0.73843   0.00000  Uiso   1.00
Ga46   Ga    0.99935   0.24794   0.24918   0.00000  Uiso   1.00
Ga47   Ga    0.74913   0.02122   0.29854   0.00000  Uiso   1.00
Ga48   Ga    0.62440   0.01875   0.29736   0.00000  Uiso   1.00
Ga49   Ga    0.87681   0.24260   0.24721   0.00000  Uiso   1.00
Ga50   Ga    0.87333   0.02023   0.29990   0.00000  Uiso   1.00
Ga51   Ga    0.99920   0.02229   0.29784   0.00000  Uiso   1.00
Ga52   Ga    0.62458   0.24248   0.24313   0.00000  Uiso   1.00
Ga53   Ga    0.74930   0.24739   0.24962   0.00000  Uiso   1.00
Ga54   Ga    0.50020   0.02252   0.29717   0.00000  Uiso   1.00
Ga55   Ga    0.50014   0.24335   0.24660   0.00000  Uiso   1.00
Ga56   Ga    0.99451   0.04270   0.81291   0.00000  Uiso   1.00
Ga57   Ga    0.74523   0.04206   0.81140   0.00000  Uiso   1.00
Ga58   Ga    0.87059   0.03912   0.81078   0.00000  Uiso   1.00
Ga59   Ga    0.62171   0.04319   0.81541   0.00000  Uiso   1.00
Ga60   Ga    0.74577   0.46361   0.18995   0.00000  Uiso   1.00
Ga61   Ga    0.62036   0.45975   0.18755   0.00000  Uiso   1.00
Ga62   Ga    0.87128   0.45925   0.18581   0.00000  Uiso   1.00
Ga63   Ga    0.99769   0.46097   0.19105   0.00000  Uiso   1.00
Ga64   Ga    0.50159   0.47815   0.70061   0.00000  Uiso   1.00
Ga65   Ga    0.99933   0.25580   0.74896   0.00000  Uiso   1.00
Ga66   Ga    0.50113   0.25250   0.75210   0.00000  Uiso   1.00
Ga67   Ga    0.62383   0.48163   0.70101   0.00000  Uiso   1.00
Ga68   Ga    0.87726   0.48016   0.69965   0.00000  Uiso   1.00
Ga69   Ga    0.75391   0.25284   0.75278   0.00000  Uiso   1.00
Ga70   Ga    0.75176   0.48514   0.70510   0.00000  Uiso   1.00
Ga71   Ga    0.62661   0.25483   0.75650   0.00000  Uiso   1.00
Ga72   Ga    0.87413   0.25402   0.75374   0.00000  Uiso   1.00
Ga73   Ga    0.50647   0.74684   0.26137   0.00000  Uiso   1.00
Ga74   Ga    0.88206   0.74958   0.26190   0.00000  Uiso   1.00
Ga75   Ga    0.63233   0.74808   0.26437   0.00000  Uiso   1.00
Ga76   Ga    0.75864   0.74486   0.26208   0.00000  Uiso   1.00
Ga77   Ga    0.75336   0.52222   0.47015   0.00000  Uiso   1.00
Ga78   Ga    0.87693   0.52466   0.46968   0.00000  Uiso   1.00
Ga79   Ga    0.62824   0.51840   0.47166   0.00000  Uiso   1.00
Ga80   Ga    0.50322   0.51660   0.47066   0.00000  Uiso   1.00
Ga81   Ga    0.74881   0.53550   0.98037   0.00000  Uiso   1.00
Ga82   Ga    0.87440   0.53501   0.98183   0.00000  Uiso   1.00
Ga83   Ga    0.62303   0.53274   0.97857   0.00000  Uiso   1.00
Ga84   Ga    0.99866   0.53583   0.98004   0.00000  Uiso   1.00
Ga85   Ga    0.75383   0.96504   0.01900   0.00000  Uiso   1.00
Ga86   Ga    0.88051   0.96904   0.01723   0.00000  Uiso   1.00
Ga87   Ga    0.62529   0.96722   0.01991   0.00000  Uiso   1.00
Ga88   Ga    0.50155   0.96289   0.02177   0.00000  Uiso   1.00
Ga89   Ga    0.99779   0.97690   0.52745   0.00000  Uiso   1.00
Ga90   Ga    0.87114   0.97512   0.53030   0.00000  Uiso   1.00
Ga91   Ga    0.62283   0.98294   0.53058   0.00000  Uiso   1.00
Ga92   Ga    0.74729   0.97543   0.53018   0.00000  Uiso   1.00
Ga93   Ga    0.87480   0.75491   0.73706   0.00000  Uiso   1.00
Ga94   Ga    0.99855   0.75335   0.73942   0.00000  Uiso   1.00
Ga95   Ga    0.62569   0.75664   0.74399   0.00000  Uiso   1.00
Ga96   Ga    0.74996   0.75398   0.74295   0.00000  Uiso   1.00
H97    H     0.02851   0.13942   0.14981   0.00000  Uiso   1.00
H98    H     0.10504   0.14169   0.16104   0.00000  Uiso   1.00
H99    H     0.10513   0.07624   0.10658   0.00000  Uiso   1.00
H100   H     0.02312   0.07856   0.09878   0.00000  Uiso   1.00
H101   H     0.35485   0.13804   0.15218   0.00000  Uiso   1.00
H102   H     0.35575   0.07811   0.09444   0.00000  Uiso   1.00
H103   H     0.26323   0.15417   0.13799   0.00000  Uiso   1.00
H104   H     0.26410   0.08888   0.08195   0.00000  Uiso   1.00
H105   H     0.22670   0.18186   0.30395   0.00000  Uiso   1.00
H106   H     0.14938   0.11209   0.28346   0.00000  Uiso   1.00
H107   H     0.14460   0.15860   0.26306   0.00000  Uiso   1.00
H108   H     0.23094   0.13504   0.32340   0.00000  Uiso   1.00
H109   H     0.48698   0.12819   0.31397   0.00000  Uiso   1.00
H110   H     0.38738   0.11059   0.28403   0.00000  Uiso   1.00
H111   H     0.38993   0.15846   0.26923   0.00000  Uiso   1.00
H112   H     0.47630   0.01850   0.39121   0.00000  Uiso   1.00
H113   H     0.39106   0.01950   0.39161   0.00000  Uiso   1.00
H114   H     0.48735   0.17581   0.29686   0.00000  Uiso   1.00
H115   H     0.22866   0.02408   0.39790   0.00000  Uiso   1.00
H116   H     0.39214   0.01020   0.44583   0.00000  Uiso   1.00
H117   H     0.47386   0.01136   0.44745   0.00000  Uiso   1.00
H118   H     0.00461   0.09721   0.58042   0.00000  Uiso   1.00
H119   H     0.26619   0.10197   0.58075   0.00000  Uiso   1.00
H120   H     0.13996   0.01454   0.44838   0.00000  Uiso   1.00
H121   H     0.13615   0.03996   0.40682   0.00000  Uiso   1.00
H122   H     0.22983   0.01419   0.45210   0.00000  Uiso   1.00
H123   H     0.10054   0.15676   0.64647   0.00000  Uiso   1.00
H124   H     0.26805   0.00167   0.64024   0.00000  Uiso   1.00
H125   H     0.35361   0.09047   0.60987   0.00000  Uiso   1.00
H126   H     0.26592   0.01795   0.70349   0.00000  Uiso   1.00
H127   H     0.00955   0.16104   0.63450   0.00000  Uiso   1.00
H128   H     0.01950   0.02794   0.70386   0.00000  Uiso   1.00
H129   H     0.35575   0.14913   0.66151   0.00000  Uiso   1.00
H130   H     0.26446   0.16519   0.63722   0.00000  Uiso   1.00
H131   H     0.14671   0.11848   0.78766   0.00000  Uiso   1.00
H132   H     0.14472   0.16158   0.76135   0.00000  Uiso   1.00
H133   H     0.01723   0.00698   0.63868   0.00000  Uiso   1.00
H134   H     0.39326   0.18628   0.79658   0.00000  Uiso   1.00
H135   H     0.10725   0.08788   0.60065   0.00000  Uiso   1.00
H136   H     0.14606   0.03491   0.96504   0.00000  Uiso   1.00
H137   H     0.23392   0.02632   0.96651   0.00000  Uiso   1.00
H138   H     0.38919   0.03269   0.90155   0.00000  Uiso   1.00
H139   H     0.14130   0.05155   0.91571   0.00000  Uiso   1.00
H140   H     0.48255   0.00085   0.88628   0.00000  Uiso   1.00
H141   H     0.47284   0.19177   0.80665   0.00000  Uiso   1.00
H142   H     0.22165   0.03752   0.91533   0.00000  Uiso   1.00
H143   H     0.39611   0.01976   0.95263   0.00000  Uiso   1.00
H144   H     0.39332   0.13638   0.81503   0.00000  Uiso   1.00
H145   H     0.22674   0.14288   0.82463   0.00000  Uiso   1.00
H146   H     0.47607   0.14149   0.82489   0.00000  Uiso   1.00
H147   H     0.22499   0.18858   0.80122   0.00000  Uiso   1.00
H148   H     0.35636   0.45044   0.08137   0.00000  Uiso   1.00
H149   H     0.10733   0.44236   0.07358   0.00000  Uiso   1.00
H150   H     0.02049   0.36349   0.19004   0.00000  Uiso   1.00
H151   H     0.10626   0.35741   0.17649   0.00000  Uiso   1.00
H152   H     0.10252   0.31103   0.19518   0.00000  Uiso   1.00
H153   H     0.02296   0.48781   0.04542   0.00000  Uiso   1.00
H154   H     0.26685   0.47689   0.10113   0.00000  Uiso   1.00
H155   H     0.35622   0.47581   0.03825   0.00000  Uiso   1.00
H156   H     0.02300   0.46230   0.09085   0.00000  Uiso   1.00
H157   H     0.11346   0.46327   0.02504   0.00000  Uiso   1.00
H158   H     0.27811   0.35793   0.17735   0.00000  Uiso   1.00
H159   H     0.27410   0.30997   0.19573   0.00000  Uiso   1.00
H160   H     0.24079   0.32955   0.36529   0.00000  Uiso   1.00
H161   H     0.14803   0.34935   0.33932   0.00000  Uiso   1.00
H162   H     0.38538   0.48175   0.29416   0.00000  Uiso   1.00
H163   H     0.35357   0.32738   0.22692   0.00000  Uiso   1.00
H164   H     0.01713   0.31773   0.20954   0.00000  Uiso   1.00
H165   H     0.39234   0.34905   0.33506   0.00000  Uiso   1.00
H166   H     0.48761   0.33573   0.35810   0.00000  Uiso   1.00
H167   H     0.14691   0.49136   0.36070   0.00000  Uiso   1.00
H168   H     0.38658   0.41449   0.38540   0.00000  Uiso   1.00
H169   H     0.13971   0.46241   0.29308   0.00000  Uiso   1.00
H170   H     0.15063   0.41117   0.39513   0.00000  Uiso   1.00
H171   H     0.34923   0.37633   0.20672   0.00000  Uiso   1.00
H172   H     0.35028   0.45728   0.59239   0.00000  Uiso   1.00
H173   H     0.01940   0.48866   0.54817   0.00000  Uiso   1.00
H174   H     0.11536   0.46587   0.53052   0.00000  Uiso   1.00
H175   H     0.23834   0.39452   0.41696   0.00000  Uiso   1.00
H176   H     0.49341   0.39324   0.41860   0.00000  Uiso   1.00
H177   H     0.35605   0.47499   0.54144   0.00000  Uiso   1.00
H178   H     0.11265   0.45142   0.58307   0.00000  Uiso   1.00
H179   H     0.02354   0.47512   0.59723   0.00000  Uiso   1.00
H180   H     0.00740   0.31824   0.69907   0.00000  Uiso   1.00
H181   H     0.26746   0.49203   0.61310   0.00000  Uiso   1.00
H182   H     0.01526   0.36969   0.68939   0.00000  Uiso   1.00
H183   H     0.11163   0.37006   0.68191   0.00000  Uiso   1.00
H184   H     0.11101   0.31644   0.69440   0.00000  Uiso   1.00
H185   H     0.36235   0.31263   0.69006   0.00000  Uiso   1.00
H186   H     0.27298   0.37842   0.69546   0.00000  Uiso   1.00
H187   H     0.27798   0.33304   0.71224   0.00000  Uiso   1.00
H188   H     0.36974   0.36218   0.67019   0.00000  Uiso   1.00
H189   H     0.22852   0.36390   0.83290   0.00000  Uiso   1.00
H190   H     0.22409   0.42695   0.88838   0.00000  Uiso   1.00
H191   H     0.13121   0.36818   0.82912   0.00000  Uiso   1.00
H192   H     0.12772   0.43582   0.88275   0.00000  Uiso   1.00
H193   H     0.47828   0.35381   0.84870   0.00000  Uiso   1.00
H194   H     0.47746   0.41572   0.90459   0.00000  Uiso   1.00
H195   H     0.38854   0.35750   0.85124   0.00000  Uiso   1.00
H196   H     0.38736   0.42090   0.90556   0.00000  Uiso   1.00
H197   H     0.13485   0.48952   0.80517   0.00000  Uiso   1.00
H198   H     0.01803   0.69770   0.13872   0.00000  Uiso   1.00
H199   H     0.10217   0.66440   0.15172   0.00000  Uiso   1.00
H200   H     0.10263   0.61929   0.08696   0.00000  Uiso   1.00
H201   H     0.01382   0.64978   0.07447   0.00000  Uiso   1.00
H202   H     0.35819   0.67861   0.14815   0.00000  Uiso   1.00
H203   H     0.35491   0.63253   0.08024   0.00000  Uiso   1.00
H204   H     0.25751   0.69625   0.13871   0.00000  Uiso   1.00
H205   H     0.25754   0.65219   0.07395   0.00000  Uiso   1.00
H206   H     0.26698   0.50358   0.06025   0.00000  Uiso   1.00
H207   H     0.48693   0.52064   0.37157   0.00000  Uiso   1.00
H208   H     0.22354   0.50946   0.30865   0.00000  Uiso   1.00
H209   H     0.14186   0.64143   0.23929   0.00000  Uiso   1.00
H210   H     0.37966   0.58193   0.25554   0.00000  Uiso   1.00
H211   H     0.48404   0.57926   0.24393   0.00000  Uiso   1.00
H212   H     0.48460   0.64728   0.26337   0.00000  Uiso   1.00
H213   H     0.22889   0.52634   0.37535   0.00000  Uiso   1.00
H214   H     0.38831   0.64936   0.27087   0.00000  Uiso   1.00
H215   H     0.23225   0.64513   0.23560   0.00000  Uiso   1.00
H216   H     0.48519   0.50618   0.30595   0.00000  Uiso   1.00
H217   H     0.23104   0.57597   0.20912   0.00000  Uiso   1.00
H218   H     0.39252   0.50047   0.36079   0.00000  Uiso   1.00
H219   H     0.14486   0.57483   0.21523   0.00000  Uiso   1.00
H220   H     0.02770   0.62014   0.57455   0.00000  Uiso   1.00
H221   H     0.35685   0.61263   0.56876   0.00000  Uiso   1.00
H222   H     0.27539   0.62452   0.56691   0.00000  Uiso   1.00
H223   H     0.11087   0.63178   0.55125   0.00000  Uiso   1.00
H224   H     0.26700   0.51250   0.56532   0.00000  Uiso   1.00
H225   H     0.48288   0.57427   0.69270   0.00000  Uiso   1.00
H226   H     0.23507   0.65876   0.75787   0.00000  Uiso   1.00
H227   H     0.35656   0.66932   0.62722   0.00000  Uiso   1.00
H228   H     0.23911   0.59605   0.75002   0.00000  Uiso   1.00
H229   H     0.48624   0.63972   0.70209   0.00000  Uiso   1.00
H230   H     0.14682   0.58145   0.70117   0.00000  Uiso   1.00
H231   H     0.10855   0.68559   0.61520   0.00000  Uiso   1.00
H232   H     0.26910   0.67809   0.63037   0.00000  Uiso   1.00
H233   H     0.39103   0.58116   0.70742   0.00000  Uiso   1.00
H234   H     0.39519   0.64655   0.72425   0.00000  Uiso   1.00
H235   H     0.14240   0.64349   0.70976   0.00000  Uiso   1.00
H236   H     0.02205   0.67280   0.63412   0.00000  Uiso   1.00
H237   H     0.38372   0.55763   0.88834   0.00000  Uiso   1.00
H238   H     0.48596   0.55156   0.88799   0.00000  Uiso   1.00
H239   H     0.22893   0.51294   0.87105   0.00000  Uiso   1.00
H240   H     0.48529   0.53918   0.82183   0.00000  Uiso   1.00
H241   H     0.39165   0.53100   0.81815   0.00000  Uiso   1.00
H242   H     0.23014   0.50011   0.80852   0.00000  Uiso   1.00
H243   H     0.13447   0.50074   0.87037   0.00000  Uiso   1.00
H244   H     0.36119   0.93733   0.11141   0.00000  Uiso   1.00
H245   H     0.25877   0.95661   0.17762   0.00000  Uiso   1.00
H246   H     0.10029   0.98018   0.12379   0.00000  Uiso   1.00
H247   H     0.01508   0.96114   0.11907   0.00000  Uiso   1.00
H248   H     0.01358   0.96951   0.18291   0.00000  Uiso   1.00
H249   H     0.25838   0.93731   0.11035   0.00000  Uiso   1.00
H250   H     0.35654   0.95919   0.17662   0.00000  Uiso   1.00
H251   H     0.09695   0.98561   0.18360   0.00000  Uiso   1.00
H252   H     0.48018   0.81578   0.37386   0.00000  Uiso   1.00
H253   H     0.14419   0.80677   0.37993   0.00000  Uiso   1.00
H254   H     0.11802   0.92937   0.31380   0.00000  Uiso   1.00
H255   H     0.25695   0.83840   0.23581   0.00000  Uiso   1.00
H256   H     0.02333   0.85468   0.27920   0.00000  Uiso   1.00
H257   H     0.23069   0.83665   0.36475   0.00000  Uiso   1.00
H258   H     0.12567   0.86332   0.30728   0.00000  Uiso   1.00
H259   H     0.36389   0.84963   0.26285   0.00000  Uiso   1.00
H260   H     0.38775   0.80650   0.37786   0.00000  Uiso   1.00
H261   H     0.24705   0.89798   0.23912   0.00000  Uiso   1.00
H262   H     0.36504   0.90658   0.26345   0.00000  Uiso   1.00
H263   H     0.02575   0.91655   0.28413   0.00000  Uiso   1.00
H264   H     0.47691   0.87906   0.43437   0.00000  Uiso   1.00
H265   H     0.14152   0.86132   0.44433   0.00000  Uiso   1.00
H266   H     0.23243   0.88685   0.42646   0.00000  Uiso   1.00
H267   H     0.38857   0.86208   0.44548   0.00000  Uiso   1.00
H268   H     0.27316   0.86022   0.75279   0.00000  Uiso   1.00
H269   H     0.10598   0.92461   0.76395   0.00000  Uiso   1.00
H270   H     0.02343   0.86479   0.75733   0.00000  Uiso   1.00
H271   H     0.10728   0.85529   0.74117   0.00000  Uiso   1.00
H272   H     0.27106   0.92558   0.77075   0.00000  Uiso   1.00
H273   H     0.10274   0.98124   0.62951   0.00000  Uiso   1.00
H274   H     0.35472   0.86396   0.77077   0.00000  Uiso   1.00
H275   H     0.01665   0.93546   0.78209   0.00000  Uiso   1.00
H276   H     0.36287   0.93149   0.79562   0.00000  Uiso   1.00
H277   H     0.35439   0.97640   0.63229   0.00000  Uiso   1.00
H278   H     0.35702   0.98260   0.69247   0.00000  Uiso   1.00
H279   H     0.10364   0.99900   0.69622   0.00000  Uiso   1.00
H280   H     0.22278   0.82029   0.85684   0.00000  Uiso   1.00
H281   H     0.22911   0.86761   0.92590   0.00000  Uiso   1.00
H282   H     0.14443   0.83893   0.84754   0.00000  Uiso   1.00
H283   H     0.14389   0.88845   0.91103   0.00000  Uiso   1.00
H284   H     0.47843   0.86601   0.92212   0.00000  Uiso   1.00
H285   H     0.48132   0.98165   0.93300   0.00000  Uiso   1.00
H286   H     0.47982   0.81283   0.85804   0.00000  Uiso   1.00
H287   H     0.38795   0.81246   0.85141   0.00000  Uiso   1.00
H288   H     0.39144   0.86211   0.92018   0.00000  Uiso   1.00
H289   H     0.61348   0.14323   0.15671   0.00000  Uiso   1.00
H290   H     0.61274   0.07707   0.10341   0.00000  Uiso   1.00
H291   H     0.86249   0.15038   0.14446   0.00000  Uiso   1.00
H292   H     0.51783   0.14266   0.15526   0.00000  Uiso   1.00
H293   H     0.86529   0.08304   0.08769   0.00000  Uiso   1.00
H294   H     0.77307   0.15072   0.13179   0.00000  Uiso   1.00
H295   H     0.76763   0.08535   0.07747   0.00000  Uiso   1.00
H296   H     0.52233   0.07945   0.10077   0.00000  Uiso   1.00
H297   H     0.73158   0.18224   0.30288   0.00000  Uiso   1.00
H298   H     0.65234   0.12044   0.30318   0.00000  Uiso   1.00
H299   H     0.64812   0.16176   0.27236   0.00000  Uiso   1.00
H300   H     0.73337   0.13418   0.32110   0.00000  Uiso   1.00
H301   H     0.97402   0.02143   0.39221   0.00000  Uiso   1.00
H302   H     0.98837   0.13132   0.31676   0.00000  Uiso   1.00
H303   H     0.88573   0.10034   0.27166   0.00000  Uiso   1.00
H304   H     0.88723   0.14500   0.25379   0.00000  Uiso   1.00
H305   H     0.98667   0.18158   0.30098   0.00000  Uiso   1.00
H306   H     0.72766   0.00606   0.38857   0.00000  Uiso   1.00
H307   H     0.63735   0.03380   0.46516   0.00000  Uiso   1.00
H308   H     0.63728   0.04501   0.41119   0.00000  Uiso   1.00
H309   H     0.77340   0.09744   0.59132   0.00000  Uiso   1.00
H310   H     0.60835   0.08940   0.59856   0.00000  Uiso   1.00
H311   H     0.89092   0.02342   0.46255   0.00000  Uiso   1.00
H312   H     0.97228   0.01356   0.44821   0.00000  Uiso   1.00
H313   H     0.51060   0.10124   0.58051   0.00000  Uiso   1.00
H314   H     0.88862   0.04320   0.41400   0.00000  Uiso   1.00
H315   H     0.50923   0.01798   0.64096   0.00000  Uiso   1.00
H316   H     0.59990   0.15216   0.65324   0.00000  Uiso   1.00
H317   H     0.51153   0.16424   0.63707   0.00000  Uiso   1.00
H318   H     0.76731   0.16293   0.65218   0.00000  Uiso   1.00
H319   H     0.85493   0.08058   0.61472   0.00000  Uiso   1.00
H320   H     0.60579   0.03466   0.71168   0.00000  Uiso   1.00
H321   H     0.85519   0.14697   0.66711   0.00000  Uiso   1.00
H322   H     0.50793   0.03765   0.71037   0.00000  Uiso   1.00
H323   H     0.60229   0.01780   0.64393   0.00000  Uiso   1.00
H324   H     0.88833   0.05069   0.91394   0.00000  Uiso   1.00
H325   H     0.72794   0.02418   0.89877   0.00000  Uiso   1.00
H326   H     0.97885   0.04148   0.91012   0.00000  Uiso   1.00
H327   H     0.63689   0.15538   0.84192   0.00000  Uiso   1.00
H328   H     0.62443   0.06139   0.92856   0.00000  Uiso   1.00
H329   H     0.98994   0.19496   0.80590   0.00000  Uiso   1.00
H330   H     0.89215   0.03209   0.96382   0.00000  Uiso   1.00
H331   H     0.73158   0.19549   0.81146   0.00000  Uiso   1.00
H332   H     0.72990   0.14991   0.83261   0.00000  Uiso   1.00
H333   H     0.89380   0.14252   0.82442   0.00000  Uiso   1.00
H334   H     0.62506   0.04653   0.97960   0.00000  Uiso   1.00
H335   H     0.64055   0.20367   0.82418   0.00000  Uiso   1.00
H336   H     0.99450   0.14930   0.82927   0.00000  Uiso   1.00
H337   H     0.98047   0.02601   0.96188   0.00000  Uiso   1.00
H338   H     0.72815   0.00747   0.94984   0.00000  Uiso   1.00
H339   H     0.89461   0.18475   0.80031   0.00000  Uiso   1.00
H340   H     0.76260   0.47920   0.10278   0.00000  Uiso   1.00
H341   H     0.51164   0.30496   0.19002   0.00000  Uiso   1.00
H342   H     0.51951   0.48900   0.05301   0.00000  Uiso   1.00
H343   H     0.60794   0.46341   0.02662   0.00000  Uiso   1.00
H344   H     0.60896   0.44608   0.07866   0.00000  Uiso   1.00
H345   H     0.85522   0.29858   0.18521   0.00000  Uiso   1.00
H346   H     0.61070   0.34755   0.16057   0.00000  Uiso   1.00
H347   H     0.86404   0.44177   0.07780   0.00000  Uiso   1.00
H348   H     0.76729   0.49773   0.05660   0.00000  Uiso   1.00
H349   H     0.51566   0.46810   0.09681   0.00000  Uiso   1.00
H350   H     0.86648   0.45855   0.02553   0.00000  Uiso   1.00
H351   H     0.85445   0.34825   0.16698   0.00000  Uiso   1.00
H352   H     0.50672   0.35169   0.17113   0.00000  Uiso   1.00
H353   H     0.60864   0.29221   0.17152   0.00000  Uiso   1.00
H354   H     0.73693   0.34072   0.35810   0.00000  Uiso   1.00
H355   H     0.64941   0.34694   0.33778   0.00000  Uiso   1.00
H356   H     0.76667   0.32033   0.21521   0.00000  Uiso   1.00
H357   H     0.65107   0.40923   0.39015   0.00000  Uiso   1.00
H358   H     0.64447   0.46822   0.29325   0.00000  Uiso   1.00
H359   H     0.90008   0.33938   0.34815   0.00000  Uiso   1.00
H360   H     0.99586   0.33399   0.36461   0.00000  Uiso   1.00
H361   H     0.88590   0.48832   0.36089   0.00000  Uiso   1.00
H362   H     0.64306   0.48243   0.35822   0.00000  Uiso   1.00
H363   H     0.88451   0.46335   0.29381   0.00000  Uiso   1.00
H364   H     0.90002   0.41049   0.39491   0.00000  Uiso   1.00
H365   H     0.76659   0.37030   0.20010   0.00000  Uiso   1.00
H366   H     0.99282   0.39845   0.41815   0.00000  Uiso   1.00
H367   H     0.51961   0.47198   0.54220   0.00000  Uiso   1.00
H368   H     0.62021   0.45866   0.52864   0.00000  Uiso   1.00
H369   H     0.85622   0.47336   0.53968   0.00000  Uiso   1.00
H370   H     0.73874   0.40603   0.41222   0.00000  Uiso   1.00
H371   H     0.61548   0.44928   0.58269   0.00000  Uiso   1.00
H372   H     0.51780   0.46092   0.59500   0.00000  Uiso   1.00
H373   H     0.85438   0.46181   0.59061   0.00000  Uiso   1.00
H374   H     0.60563   0.34622   0.73802   0.00000  Uiso   1.00
H375   H     0.52434   0.31973   0.70906   0.00000  Uiso   1.00
H376   H     0.60753   0.40037   0.72722   0.00000  Uiso   1.00
H377   H     0.53126   0.37039   0.69379   0.00000  Uiso   1.00
H378   H     0.84757   0.33764   0.72082   0.00000  Uiso   1.00
H379   H     0.76449   0.37045   0.68883   0.00000  Uiso   1.00
H380   H     0.76047   0.31463   0.69863   0.00000  Uiso   1.00
H381   H     0.85200   0.39268   0.71128   0.00000  Uiso   1.00
H382   H     0.77109   0.49205   0.61277   0.00000  Uiso   1.00
H383   H     0.73095   0.36110   0.84679   0.00000  Uiso   1.00
H384   H     0.73273   0.42118   0.89977   0.00000  Uiso   1.00
H385   H     0.64316   0.35488   0.85142   0.00000  Uiso   1.00
H386   H     0.63900   0.41343   0.90941   0.00000  Uiso   1.00
H387   H     0.99126   0.34230   0.86883   0.00000  Uiso   1.00
H388   H     0.89464   0.35449   0.85372   0.00000  Uiso   1.00
H389   H     0.89504   0.41890   0.90635   0.00000  Uiso   1.00
H390   H     0.98674   0.40718   0.92203   0.00000  Uiso   1.00
H391   H     0.60559   0.67366   0.15158   0.00000  Uiso   1.00
H392   H     0.60619   0.62909   0.08515   0.00000  Uiso   1.00
H393   H     0.51662   0.62920   0.07077   0.00000  Uiso   1.00
H394   H     0.86501   0.66655   0.15738   0.00000  Uiso   1.00
H395   H     0.85906   0.61882   0.08855   0.00000  Uiso   1.00
H396   H     0.77235   0.68556   0.14365   0.00000  Uiso   1.00
H397   H     0.77281   0.64077   0.08036   0.00000  Uiso   1.00
H398   H     0.52185   0.68446   0.14184   0.00000  Uiso   1.00
H399   H     0.89306   0.56528   0.19910   0.00000  Uiso   1.00
H400   H     0.75446   0.65243   0.27596   0.00000  Uiso   1.00
H401   H     0.89435   0.63466   0.21520   0.00000  Uiso   1.00
H402   H     0.74116   0.54093   0.37508   0.00000  Uiso   1.00
H403   H     0.98724   0.52744   0.36739   0.00000  Uiso   1.00
H404   H     0.98253   0.64450   0.26376   0.00000  Uiso   1.00
H405   H     0.64352   0.63869   0.24015   0.00000  Uiso   1.00
H406   H     0.73965   0.52033   0.30735   0.00000  Uiso   1.00
H407   H     0.74517   0.58547   0.25455   0.00000  Uiso   1.00
H408   H     0.64242   0.56880   0.21304   0.00000  Uiso   1.00
H409   H     0.98112   0.57901   0.24136   0.00000  Uiso   1.00
H410   H     0.99016   0.51491   0.30596   0.00000  Uiso   1.00
H411   H     0.52622   0.62370   0.56124   0.00000  Uiso   1.00
H412   H     0.77086   0.64105   0.56010   0.00000  Uiso   1.00
H413   H     0.60404   0.62306   0.57511   0.00000  Uiso   1.00
H414   H     0.86627   0.63665   0.55078   0.00000  Uiso   1.00
H415   H     0.76831   0.50612   0.55871   0.00000  Uiso   1.00
H416   H     0.98909   0.59486   0.74051   0.00000  Uiso   1.00
H417   H     0.74163   0.66231   0.76186   0.00000  Uiso   1.00
H418   H     0.63477   0.59878   0.74785   0.00000  Uiso   1.00
H419   H     0.60765   0.67144   0.63472   0.00000  Uiso   1.00
H420   H     0.51786   0.68186   0.62516   0.00000  Uiso   1.00
H421   H     0.74189   0.59622   0.74431   0.00000  Uiso   1.00
H422   H     0.88715   0.64184   0.69870   0.00000  Uiso   1.00
H423   H     0.86554   0.69501   0.61505   0.00000  Uiso   1.00
H424   H     0.88141   0.57555   0.68658   0.00000  Uiso   1.00
H425   H     0.62786   0.66389   0.76418   0.00000  Uiso   1.00
H426   H     0.76791   0.69468   0.62417   0.00000  Uiso   1.00
H427   H     0.99333   0.66196   0.76025   0.00000  Uiso   1.00
H428   H     0.89523   0.53719   0.88455   0.00000  Uiso   1.00
H429   H     0.99095   0.55739   0.88841   0.00000  Uiso   1.00
H430   H     0.65025   0.51237   0.81468   0.00000  Uiso   1.00
H431   H     0.73074   0.53994   0.88133   0.00000  Uiso   1.00
H432   H     0.73241   0.53153   0.81991   0.00000  Uiso   1.00
H433   H     0.64365   0.52441   0.87984   0.00000  Uiso   1.00
H434   H     0.98894   0.54790   0.82763   0.00000  Uiso   1.00
H435   H     0.89996   0.52087   0.81715   0.00000  Uiso   1.00
H436   H     0.52035   0.97565   0.18624   0.00000  Uiso   1.00
H437   H     0.61151   0.95140   0.11845   0.00000  Uiso   1.00
H438   H     0.61593   0.96736   0.18379   0.00000  Uiso   1.00
H439   H     0.85160   0.98097   0.12760   0.00000  Uiso   1.00
H440   H     0.52364   0.95748   0.11955   0.00000  Uiso   1.00
H441   H     0.77032   0.97823   0.12239   0.00000  Uiso   1.00
H442   H     0.77208   0.99753   0.19070   0.00000  Uiso   1.00
H443   H     0.85200   0.98577   0.18762   0.00000  Uiso   1.00
H444   H     0.62041   0.83940   0.24922   0.00000  Uiso   1.00
H445   H     0.52348   0.86502   0.29654   0.00000  Uiso   1.00
H446   H     0.98119   0.81623   0.37123   0.00000  Uiso   1.00
H447   H     0.62179   0.89942   0.25223   0.00000  Uiso   1.00
H448   H     0.89604   0.80946   0.37924   0.00000  Uiso   1.00
H449   H     0.64506   0.81430   0.37923   0.00000  Uiso   1.00
H450   H     0.85960   0.85101   0.26568   0.00000  Uiso   1.00
H451   H     0.76564   0.92650   0.31515   0.00000  Uiso   1.00
H452   H     0.77057   0.85921   0.30302   0.00000  Uiso   1.00
H453   H     0.86065   0.91323   0.27243   0.00000  Uiso   1.00
H454   H     0.73455   0.81134   0.37292   0.00000  Uiso   1.00
H455   H     0.52699   0.92252   0.29748   0.00000  Uiso   1.00
H456   H     0.72977   0.86813   0.43835   0.00000  Uiso   1.00
H457   H     0.97891   0.87303   0.43261   0.00000  Uiso   1.00
H458   H     0.88942   0.86839   0.44403   0.00000  Uiso   1.00
H459   H     0.64395   0.87627   0.44128   0.00000  Uiso   1.00
H460   H     0.72654   0.99748   0.44220   0.00000  Uiso   1.00
H461   H     0.75901   0.98132   0.63464   0.00000  Uiso   1.00
H462   H     0.61448   0.92609   0.76387   0.00000  Uiso   1.00
H463   H     0.85210   0.92590   0.76923   0.00000  Uiso   1.00
H464   H     0.61585   0.86149   0.74345   0.00000  Uiso   1.00
H465   H     0.50277   0.84855   0.72130   0.00000  Uiso   1.00
H466   H     0.76536   0.87008   0.78494   0.00000  Uiso   1.00
H467   H     0.50962   0.91936   0.75007   0.00000  Uiso   1.00
H468   H     0.86002   0.99211   0.69614   0.00000  Uiso   1.00
H469   H     0.75921   0.99622   0.70047   0.00000  Uiso   1.00
H470   H     0.86686   0.96636   0.62545   0.00000  Uiso   1.00
H471   H     0.85729   0.85984   0.75188   0.00000  Uiso   1.00
H472   H     0.74014   0.79945   0.85624   0.00000  Uiso   1.00
H473   H     0.73847   0.84954   0.92386   0.00000  Uiso   1.00
H474   H     0.64324   0.82105   0.85173   0.00000  Uiso   1.00
H475   H     0.64851   0.86426   0.92199   0.00000  Uiso   1.00
H476   H     0.98925   0.85857   0.92437   0.00000  Uiso   1.00
H477   H     0.89978   0.82621   0.85036   0.00000  Uiso   1.00
H478   H     0.89754   0.87825   0.91480   0.00000  Uiso   1.00
H479   H     0.98970   0.80732   0.86201   0.00000  Uiso   1.00
H480   H     0.76700   0.94008   0.80609   0.00000  Uiso   1.00
C481   C     0.48300   0.12696   0.14356   0.00000  Uiso   1.00
C482   C     0.43964   0.07271   0.09163   0.00000  Uiso   1.00
C483   C     0.14098   0.12804   0.14364   0.00000  Uiso   1.00
C484   C     0.13995   0.09243   0.11132   0.00000  Uiso   1.00
C485   C     0.23044   0.13664   0.13270   0.00000  Uiso   1.00
C486   C     0.23050   0.10012   0.10062   0.00000  Uiso   1.00
C487   C     0.18702   0.14927   0.15502   0.00000  Uiso   1.00
C488   C     0.18572   0.07727   0.08904   0.00000  Uiso   1.00
C489   C     0.18642   0.03769   0.06076   0.00000  Uiso   1.00
C490   C     0.48522   0.09214   0.11035   0.00000  Uiso   1.00
C491   C     0.43452   0.14357   0.15815   0.00000  Uiso   1.00
C492   C     0.44026   0.03226   0.06389   0.00000  Uiso   1.00
C493   C     0.39045   0.12461   0.13924   0.00000  Uiso   1.00
C494   C     0.39225   0.09038   0.10519   0.00000  Uiso   1.00
C495   C     0.18828   0.18718   0.18952   0.00000  Uiso   1.00
C496   C     0.43466   0.18202   0.19222   0.00000  Uiso   1.00
C497   C     0.02083   0.13512   0.30267   0.00000  Uiso   1.00
C498   C     0.11080   0.12267   0.28248   0.00000  Uiso   1.00
C499   C     0.10993   0.15021   0.27276   0.00000  Uiso   1.00
C500   C     0.06222   0.20251   0.26987   0.00000  Uiso   1.00
C501   C     0.06446   0.17186   0.27984   0.00000  Uiso   1.00
C502   C     0.06699   0.08048   0.30021   0.00000  Uiso   1.00
C503   C     0.06704   0.11431   0.29719   0.00000  Uiso   1.00
C504   C     0.30769   0.02360   0.39161   0.00000  Uiso   1.00
C505   C     0.02027   0.16363   0.29431   0.00000  Uiso   1.00
C506   C     0.30904   0.11653   0.30217   0.00000  Uiso   1.00
C507   C     0.05988   0.03345   0.36099   0.00000  Uiso   1.00
C508   C     0.30808   0.02675   0.35763   0.00000  Uiso   1.00
C509   C     0.26264   0.16667   0.30006   0.00000  Uiso   1.00
C510   C     0.35350   0.12585   0.28969   0.00000  Uiso   1.00
C511   C     0.35366   0.15477   0.28182   0.00000  Uiso   1.00
C512   C     0.26308   0.13726   0.30817   0.00000  Uiso   1.00
C513   C     0.30580   0.20200   0.27250   0.00000  Uiso   1.00
C514   C     0.30722   0.17303   0.28331   0.00000  Uiso   1.00
C515   C     0.30840   0.08235   0.30668   0.00000  Uiso   1.00
C516   C     0.05567   0.03165   0.39654   0.00000  Uiso   1.00
C517   C     0.31281   0.01399   0.45542   0.00000  Uiso   1.00
C518   C     0.35747   0.01406   0.43638   0.00000  Uiso   1.00
C519   C     0.10147   0.02237   0.44171   0.00000  Uiso   1.00
C520   C     0.05666   0.00430   0.48483   0.00000  Uiso   1.00
C521   C     0.10062   0.03085   0.41322   0.00000  Uiso   1.00
C522   C     0.18840   0.08854   0.58868   0.00000  Uiso   1.00
C523   C     0.19134   0.04605   0.56360   0.00000  Uiso   1.00
C524   C     0.43446   0.04840   0.56418   0.00000  Uiso   1.00
C525   C     0.00849   0.02521   0.40899   0.00000  Uiso   1.00
C526   C     0.31319   0.00181   0.48429   0.00000  Uiso   1.00
C527   C     0.43103   0.09022   0.58933   0.00000  Uiso   1.00
C528   C     0.05377   0.01578   0.45529   0.00000  Uiso   1.00
C529   C     0.35485   0.02147   0.40671   0.00000  Uiso   1.00
C530   C     0.26478   0.01675   0.43905   0.00000  Uiso   1.00
C531   C     0.47579   0.11256   0.59768   0.00000  Uiso   1.00
C532   C     0.00675   0.02024   0.44003   0.00000  Uiso   1.00
C533   C     0.26425   0.02065   0.40776   0.00000  Uiso   1.00
C534   C     0.23045   0.11141   0.59669   0.00000  Uiso   1.00
C535   C     0.39235   0.14177   0.64590   0.00000  Uiso   1.00
C536   C     0.22890   0.00958   0.68782   0.00000  Uiso   1.00
C537   C     0.06613   0.18299   0.78338   0.00000  Uiso   1.00
C538   C     0.47816   0.14832   0.63044   0.00000  Uiso   1.00
C539   C     0.13651   0.14355   0.63197   0.00000  Uiso   1.00
C540   C     0.22811   0.14915   0.62666   0.00000  Uiso   1.00
C541   C     0.06381   0.20820   0.76781   0.00000  Uiso   1.00
C542   C     0.17986   0.19902   0.68351   0.00000  Uiso   1.00
C543   C     0.18218   0.16590   0.64576   0.00000  Uiso   1.00
C544   C     0.43135   0.02356   0.74599   0.00000  Uiso   1.00
C545   C     0.11196   0.13462   0.79127   0.00000  Uiso   1.00
C546   C     0.43244   0.01362   0.70691   0.00000  Uiso   1.00
C547   C     0.38749   0.10709   0.61371   0.00000  Uiso   1.00
C548   C     0.43592   0.16226   0.65485   0.00000  Uiso   1.00
C549   C     0.43761   0.19755   0.69319   0.00000  Uiso   1.00
C550   C     0.30866   0.21628   0.78227   0.00000  Uiso   1.00
C551   C     0.47699   0.01297   0.65438   0.00000  Uiso   1.00
C552   C     0.14036   0.10506   0.60612   0.00000  Uiso   1.00
C553   C     0.18423   0.02067   0.74455   0.00000  Uiso   1.00
C554   C     0.18306   0.01073   0.70466   0.00000  Uiso   1.00
C555   C     0.13797   0.00088   0.68395   0.00000  Uiso   1.00
C556   C     0.11084   0.15958   0.77740   0.00000  Uiso   1.00
C557   C     0.47682   0.02348   0.69280   0.00000  Uiso   1.00
C558   C     0.30900   0.10349   0.82578   0.00000  Uiso   1.00
C559   C     0.06925   0.13097   0.80988   0.00000  Uiso   1.00
C560   C     0.06252   0.02511   0.96401   0.00000  Uiso   1.00
C561   C     0.01351   0.04259   0.92384   0.00000  Uiso   1.00
C562   C     0.30492   0.04295   0.87254   0.00000  Uiso   1.00
C563   C     0.05552   0.04807   0.87298   0.00000  Uiso   1.00
C564   C     0.30653   0.03605   0.90366   0.00000  Uiso   1.00
C565   C     0.35510   0.03526   0.91866   0.00000  Uiso   1.00
C566   C     0.10451   0.04664   0.92527   0.00000  Uiso   1.00
C567   C     0.05751   0.05011   0.90890   0.00000  Uiso   1.00
C568   C     0.26298   0.18099   0.80912   0.00000  Uiso   1.00
C569   C     0.31556   0.01762   0.96091   0.00000  Uiso   1.00
C570   C     0.26184   0.03446   0.92278   0.00000  Uiso   1.00
C571   C     0.01612   0.03097   0.95108   0.00000  Uiso   1.00
C572   C     0.26734   0.02589   0.95201   0.00000  Uiso   1.00
C573   C     0.06564   0.09932   0.81613   0.00000  Uiso   1.00
C574   C     0.35897   0.02516   0.94550   0.00000  Uiso   1.00
C575   C     0.35786   0.15039   0.81484   0.00000  Uiso   1.00
C576   C     0.10847   0.03704   0.95447   0.00000  Uiso   1.00
C577   C     0.30992   0.13829   0.82369   0.00000  Uiso   1.00
C578   C     0.02702   0.15513   0.81683   0.00000  Uiso   1.00
C579   C     0.06303   0.00640   0.98845   0.00000  Uiso   1.00
C580   C     0.02512   0.17798   0.80102   0.00000  Uiso   1.00
C581   C     0.35536   0.17882   0.80517   0.00000  Uiso   1.00
C582   C     0.26321   0.15448   0.82182   0.00000  Uiso   1.00
C583   C     0.30876   0.19380   0.80001   0.00000  Uiso   1.00
C584   C     0.39043   0.45864   0.07555   0.00000  Uiso   1.00
C585   C     0.14324   0.45317   0.06981   0.00000  Uiso   1.00
C586   C     0.23238   0.48681   0.06017   0.00000  Uiso   1.00
C587   C     0.43632   0.45612   0.09139   0.00000  Uiso   1.00
C588   C     0.18576   0.45293   0.12472   0.00000  Uiso   1.00
C589   C     0.18826   0.45651   0.09061   0.00000  Uiso   1.00
C590   C     0.43512   0.45403   0.12818   0.00000  Uiso   1.00
C591   C     0.42969   0.40317   0.18461   0.00000  Uiso   1.00
C592   C     0.48365   0.47985   0.05647   0.00000  Uiso   1.00
C593   C     0.23770   0.34765   0.17983   0.00000  Uiso   1.00
C594   C     0.18794   0.48609   0.04157   0.00000  Uiso   1.00
C595   C     0.23193   0.47457   0.08675   0.00000  Uiso   1.00
C596   C     0.23561   0.32096   0.19141   0.00000  Uiso   1.00
C597   C     0.18898   0.39897   0.17746   0.00000  Uiso   1.00
C598   C     0.43793   0.48214   0.03886   0.00000  Uiso   1.00
C599   C     0.48173   0.46664   0.08157   0.00000  Uiso   1.00
C600   C     0.14553   0.46626   0.04420   0.00000  Uiso   1.00
C601   C     0.39161   0.47126   0.04891   0.00000  Uiso   1.00
C602   C     0.14452   0.34796   0.17929   0.00000  Uiso   1.00
C603   C     0.14212   0.32256   0.19291   0.00000  Uiso   1.00
C604   C     0.47423   0.31945   0.19290   0.00000  Uiso   1.00
C605   C     0.19051   0.36305   0.17572   0.00000  Uiso   1.00
C606   C     0.47255   0.34720   0.18344   0.00000  Uiso   1.00
C607   C     0.42741   0.36760   0.18705   0.00000  Uiso   1.00
C608   C     0.43694   0.49802   0.01265   0.00000  Uiso   1.00
C609   C     0.18969   0.28842   0.22057   0.00000  Uiso   1.00
C610   C     0.32083   0.33313   0.34928   0.00000  Uiso   1.00
C611   C     0.11511   0.35938   0.35741   0.00000  Uiso   1.00
C612   C     0.31799   0.29729   0.31124   0.00000  Uiso   1.00
C613   C     0.30591   0.49227   0.29624   0.00000  Uiso   1.00
C614   C     0.38489   0.35891   0.20071   0.00000  Uiso   1.00
C615   C     0.06424   0.30163   0.31047   0.00000  Uiso   1.00
C616   C     0.06869   0.33714   0.34693   0.00000  Uiso   1.00
C617   C     0.30694   0.48299   0.25730   0.00000  Uiso   1.00
C618   C     0.11665   0.39603   0.38874   0.00000  Uiso   1.00
C619   C     0.36106   0.35747   0.35384   0.00000  Uiso   1.00
C620   C     0.02832   0.35088   0.37094   0.00000  Uiso   1.00
C621   C     0.27635   0.34648   0.37188   0.00000  Uiso   1.00
C622   C     0.06271   0.47395   0.25334   0.00000  Uiso   1.00
C623   C     0.43430   0.28344   0.21972   0.00000  Uiso   1.00
C624   C     0.06502   0.49002   0.29373   0.00000  Uiso   1.00
C625   C     0.10934   0.48142   0.30863   0.00000  Uiso   1.00
C626   C     0.35366   0.49102   0.31179   0.00000  Uiso   1.00
C627   C     0.38611   0.33220   0.21355   0.00000  Uiso   1.00
C628   C     0.18919   0.31072   0.20138   0.00000  Uiso   1.00
C629   C     0.11137   0.49693   0.34847   0.00000  Uiso   1.00
C630   C     0.35756   0.39444   0.38214   0.00000  Uiso   1.00
C631   C     0.43103   0.31074   0.20911   0.00000  Uiso   1.00
C632   C     0.14644   0.47409   0.55174   0.00000  Uiso   1.00
C633   C     0.06938   0.45248   0.43522   0.00000  Uiso   1.00
C634   C     0.14626   0.46435   0.57952   0.00000  Uiso   1.00
C635   C     0.18850   0.49189   0.54760   0.00000  Uiso   1.00
C636   C     0.48310   0.46574   0.58573   0.00000  Uiso   1.00
C637   C     0.38962   0.46153   0.58149   0.00000  Uiso   1.00
C638   C     0.31527   0.40919   0.40640   0.00000  Uiso   1.00
C639   C     0.43705   0.47301   0.53601   0.00000  Uiso   1.00
C640   C     0.31740   0.44973   0.43719   0.00000  Uiso   1.00
C641   C     0.07194   0.41157   0.40878   0.00000  Uiso   1.00
C642   C     0.23265   0.49111   0.59868   0.00000  Uiso   1.00
C643   C     0.39096   0.46864   0.55105   0.00000  Uiso   1.00
C644   C     0.48301   0.47324   0.55476   0.00000  Uiso   1.00
C645   C     0.43770   0.48711   0.50857   0.00000  Uiso   1.00
C646   C     0.23483   0.49933   0.56903   0.00000  Uiso   1.00
C647   C     0.02819   0.38816   0.40208   0.00000  Uiso   1.00
C648   C     0.27367   0.38499   0.40058   0.00000  Uiso   1.00
C649   C     0.14749   0.32972   0.69366   0.00000  Uiso   1.00
C650   C     0.23734   0.36599   0.69716   0.00000  Uiso   1.00
C651   C     0.43551   0.46058   0.60024   0.00000  Uiso   1.00
C652   C     0.24025   0.33802   0.70546   0.00000  Uiso   1.00
C653   C     0.14706   0.35876   0.68598   0.00000  Uiso   1.00
C654   C     0.49420   0.35975   0.69426   0.00000  Uiso   1.00
C655   C     0.19359   0.29446   0.72116   0.00000  Uiso   1.00
C656   C     0.19545   0.32047   0.70500   0.00000  Uiso   1.00
C657   C     0.18916   0.41220   0.68636   0.00000  Uiso   1.00
C658   C     0.19154   0.37878   0.68921   0.00000  Uiso   1.00
C659   C     0.18606   0.46773   0.63718   0.00000  Uiso   1.00
C660   C     0.39820   0.32747   0.69361   0.00000  Uiso   1.00
C661   C     0.40247   0.35315   0.67978   0.00000  Uiso   1.00
C662   C     0.43903   0.29236   0.72336   0.00000  Uiso   1.00
C663   C     0.44257   0.31589   0.70511   0.00000  Uiso   1.00
C664   C     0.44630   0.41138   0.68743   0.00000  Uiso   1.00
C665   C     0.44799   0.37394   0.68603   0.00000  Uiso   1.00
C666   C     0.43608   0.45910   0.63645   0.00000  Uiso   1.00
C667   C     0.48973   0.33040   0.70269   0.00000  Uiso   1.00
C668   C     0.18768   0.47400   0.60403   0.00000  Uiso   1.00
C669   C     0.31565   0.49519   0.76715   0.00000  Uiso   1.00
C670   C     0.02303   0.36263   0.87411   0.00000  Uiso   1.00
C671   C     0.10322   0.37616   0.85146   0.00000  Uiso   1.00
C672   C     0.09920   0.41498   0.88220   0.00000  Uiso   1.00
C673   C     0.06216   0.35176   0.84713   0.00000  Uiso   1.00
C674   C     0.05909   0.42663   0.90836   0.00000  Uiso   1.00
C675   C     0.05723   0.46585   0.93791   0.00000  Uiso   1.00
C676   C     0.30531   0.46591   0.93896   0.00000  Uiso   1.00
C677   C     0.02000   0.40091   0.90363   0.00000  Uiso   1.00
C678   C     0.26096   0.37483   0.85177   0.00000  Uiso   1.00
C679   C     0.26003   0.41008   0.88324   0.00000  Uiso   1.00
C680   C     0.35207   0.37060   0.86121   0.00000  Uiso   1.00
C681   C     0.35026   0.40747   0.89322   0.00000  Uiso   1.00
C682   C     0.30740   0.35317   0.84155   0.00000  Uiso   1.00
C683   C     0.30445   0.42756   0.90562   0.00000  Uiso   1.00
C684   C     0.06030   0.31429   0.81263   0.00000  Uiso   1.00
C685   C     0.30819   0.31377   0.80860   0.00000  Uiso   1.00
C686   C     0.18257   0.71391   0.19191   0.00000  Uiso   1.00
C687   C     0.48496   0.64248   0.08931   0.00000  Uiso   1.00
C688   C     0.44325   0.68565   0.15003   0.00000  Uiso   1.00
C689   C     0.13578   0.66479   0.13509   0.00000  Uiso   1.00
C690   C     0.13506   0.63683   0.09778   0.00000  Uiso   1.00
C691   C     0.22322   0.68050   0.12850   0.00000  Uiso   1.00
C692   C     0.22258   0.65297   0.09005   0.00000  Uiso   1.00
C693   C     0.17761   0.68810   0.14975   0.00000  Uiso   1.00
C694   C     0.17978   0.62931   0.07494   0.00000  Uiso   1.00
C695   C     0.18331   0.59504   0.03842   0.00000  Uiso   1.00
C696   C     0.43659   0.62882   0.07278   0.00000  Uiso   1.00
C697   C     0.44466   0.71047   0.19243   0.00000  Uiso   1.00
C698   C     0.43596   0.59384   0.03657   0.00000  Uiso   1.00
C699   C     0.39532   0.67096   0.13198   0.00000  Uiso   1.00
C700   C     0.39295   0.64257   0.09370   0.00000  Uiso   1.00
C701   C     0.48765   0.67026   0.12795   0.00000  Uiso   1.00
C702   C     0.18740   0.50186   0.01732   0.00000  Uiso   1.00
C703   C     0.10659   0.62714   0.23788   0.00000  Uiso   1.00
C704   C     0.30258   0.53263   0.21374   0.00000  Uiso   1.00
C705   C     0.02518   0.51104   0.31748   0.00000  Uiso   1.00
C706   C     0.26168   0.50621   0.32014   0.00000  Uiso   1.00
C707   C     0.01583   0.59096   0.23928   0.00000  Uiso   1.00
C708   C     0.31233   0.51382   0.37237   0.00000  Uiso   1.00
C709   C     0.06103   0.68830   0.26194   0.00000  Uiso   1.00
C710   C     0.01623   0.63018   0.25152   0.00000  Uiso   1.00
C711   C     0.26370   0.51649   0.35778   0.00000  Uiso   1.00
C712   C     0.26157   0.59335   0.22679   0.00000  Uiso   1.00
C713   C     0.06110   0.64827   0.25117   0.00000  Uiso   1.00
C714   C     0.02194   0.51698   0.35391   0.00000  Uiso   1.00
C715   C     0.26414   0.63143   0.24085   0.00000  Uiso   1.00
C716   C     0.31670   0.69031   0.26052   0.00000  Uiso   1.00
C717   C     0.31032   0.65148   0.25436   0.00000  Uiso   1.00
C718   C     0.34825   0.59550   0.25103   0.00000  Uiso   1.00
C719   C     0.35261   0.63391   0.25988   0.00000  Uiso   1.00
C720   C     0.06229   0.56976   0.22571   0.00000  Uiso   1.00
C721   C     0.30389   0.57407   0.23147   0.00000  Uiso   1.00
C722   C     0.10668   0.58966   0.22694   0.00000  Uiso   1.00
C723   C     0.06654   0.51220   0.37050   0.00000  Uiso   1.00
C724   C     0.35785   0.50353   0.35055   0.00000  Uiso   1.00
C725   C     0.05936   0.52824   0.21130   0.00000  Uiso   1.00
C726   C     0.14710   0.64337   0.56756   0.00000  Uiso   1.00
C727   C     0.31409   0.51948   0.41177   0.00000  Uiso   1.00
C728   C     0.44451   0.57896   0.52461   0.00000  Uiso   1.00
C729   C     0.19420   0.62489   0.55361   0.00000  Uiso   1.00
C730   C     0.19438   0.58666   0.52034   0.00000  Uiso   1.00
C731   C     0.44212   0.61564   0.56045   0.00000  Uiso   1.00
C732   C     0.48831   0.63542   0.57715   0.00000  Uiso   1.00
C733   C     0.06658   0.51791   0.40911   0.00000  Uiso   1.00
C734   C     0.23863   0.63939   0.57670   0.00000  Uiso   1.00
C735   C     0.39428   0.62723   0.57858   0.00000  Uiso   1.00
C736   C     0.18898   0.50204   0.51781   0.00000  Uiso   1.00
C737   C     0.43633   0.71228   0.67110   0.00000  Uiso   1.00
C738   C     0.39366   0.66027   0.61393   0.00000  Uiso   1.00
C739   C     0.31471   0.65850   0.73968   0.00000  Uiso   1.00
C740   C     0.02190   0.60579   0.73219   0.00000  Uiso   1.00
C741   C     0.48397   0.66857   0.61216   0.00000  Uiso   1.00
C742   C     0.18961   0.68867   0.62702   0.00000  Uiso   1.00
C743   C     0.11056   0.59695   0.70910   0.00000  Uiso   1.00
C744   C     0.10822   0.63305   0.71532   0.00000  Uiso   1.00
C745   C     0.18525   0.71319   0.67013   0.00000  Uiso   1.00
C746   C     0.06445   0.69272   0.73193   0.00000  Uiso   1.00
C747   C     0.06509   0.65701   0.72977   0.00000  Uiso   1.00
C748   C     0.06711   0.54356   0.71452   0.00000  Uiso   1.00
C749   C     0.06679   0.58262   0.71767   0.00000  Uiso   1.00
C750   C     0.23607   0.67002   0.61289   0.00000  Uiso   1.00
C751   C     0.43668   0.68001   0.63154   0.00000  Uiso   1.00
C752   C     0.27104   0.60575   0.74141   0.00000  Uiso   1.00
C753   C     0.31602   0.58306   0.72749   0.00000  Uiso   1.00
C754   C     0.31768   0.54255   0.71775   0.00000  Uiso   1.00
C755   C     0.31474   0.69503   0.74131   0.00000  Uiso   1.00
C756   C     0.14379   0.67391   0.60431   0.00000  Uiso   1.00
C757   C     0.02354   0.64348   0.74126   0.00000  Uiso   1.00
C758   C     0.27100   0.64255   0.74695   0.00000  Uiso   1.00
C759   C     0.35976   0.59849   0.72259   0.00000  Uiso   1.00
C760   C     0.35984   0.63641   0.72946   0.00000  Uiso   1.00
C761   C     0.06184   0.50473   0.76932   0.00000  Uiso   1.00
C762   C     0.06242   0.53128   0.88334   0.00000  Uiso   1.00
C763   C     0.06286   0.53856   0.92253   0.00000  Uiso   1.00
C764   C     0.31269   0.51293   0.80917   0.00000  Uiso   1.00
C765   C     0.30911   0.53674   0.88738   0.00000  Uiso   1.00
C766   C     0.02313   0.53691   0.83413   0.00000  Uiso   1.00
C767   C     0.31131   0.54375   0.92618   0.00000  Uiso   1.00
C768   C     0.35220   0.54092   0.87015   0.00000  Uiso   1.00
C769   C     0.26629   0.52081   0.86307   0.00000  Uiso   1.00
C770   C     0.35699   0.52807   0.83122   0.00000  Uiso   1.00
C771   C     0.26581   0.51055   0.82430   0.00000  Uiso   1.00
C772   C     0.02078   0.54217   0.86969   0.00000  Uiso   1.00
C773   C     0.10270   0.51147   0.85998   0.00000  Uiso   1.00
C774   C     0.06573   0.51859   0.81014   0.00000  Uiso   1.00
C775   C     0.10393   0.50438   0.82325   0.00000  Uiso   1.00
C776   C     0.18160   0.96081   0.07609   0.00000  Uiso   1.00
C777   C     0.44041   0.95037   0.11147   0.00000  Uiso   1.00
C778   C     0.13606   0.97350   0.13455   0.00000  Uiso   1.00
C779   C     0.44039   0.95327   0.07656   0.00000  Uiso   1.00
C780   C     0.17994   0.95898   0.11191   0.00000  Uiso   1.00
C781   C     0.22350   0.94939   0.12599   0.00000  Uiso   1.00
C782   C     0.39505   0.94881   0.12788   0.00000  Uiso   1.00
C783   C     0.22384   0.95860   0.16415   0.00000  Uiso   1.00
C784   C     0.43720   0.97243   0.18867   0.00000  Uiso   1.00
C785   C     0.48410   0.96636   0.16997   0.00000  Uiso   1.00
C786   C     0.48540   0.95719   0.13184   0.00000  Uiso   1.00
C787   C     0.39288   0.95922   0.16648   0.00000  Uiso   1.00
C788   C     0.17756   0.97300   0.18719   0.00000  Uiso   1.00
C789   C     0.13400   0.97721   0.17002   0.00000  Uiso   1.00
C790   C     0.01712   0.82649   0.38795   0.00000  Uiso   1.00
C791   C     0.40159   0.89729   0.26937   0.00000  Uiso   1.00
C792   C     0.49215   0.90424   0.28581   0.00000  Uiso   1.00
C793   C     0.31057   0.81861   0.36617   0.00000  Uiso   1.00
C794   C     0.15240   0.87339   0.29507   0.00000  Uiso   1.00
C795   C     0.44590   0.92062   0.28127   0.00000  Uiso   1.00
C796   C     0.22136   0.89240   0.25400   0.00000  Uiso   1.00
C797   C     0.26605   0.84036   0.38085   0.00000  Uiso   1.00
C798   C     0.44589   0.84732   0.27352   0.00000  Uiso   1.00
C799   C     0.22568   0.85806   0.25335   0.00000  Uiso   1.00
C800   C     0.15029   0.90891   0.29784   0.00000  Uiso   1.00
C801   C     0.19083   0.80858   0.26726   0.00000  Uiso   1.00
C802   C     0.19040   0.84808   0.27436   0.00000  Uiso   1.00
C803   C     0.06555   0.78425   0.33127   0.00000  Uiso   1.00
C804   C     0.18367   0.95619   0.28487   0.00000  Uiso   1.00
C805   C     0.18458   0.91918   0.27796   0.00000  Uiso   1.00
C806   C     0.44138   0.95889   0.28944   0.00000  Uiso   1.00
C807   C     0.44565   0.80997   0.26990   0.00000  Uiso   1.00
C808   C     0.06307   0.80970   0.37214   0.00000  Uiso   1.00
C809   C     0.31296   0.78878   0.32671   0.00000  Uiso   1.00
C810   C     0.35437   0.82729   0.39079   0.00000  Uiso   1.00
C811   C     0.40070   0.86377   0.27065   0.00000  Uiso   1.00
C812   C     0.10891   0.82100   0.39196   0.00000  Uiso   1.00
C813   C     0.49071   0.86908   0.28414   0.00000  Uiso   1.00
C814   C     0.43510   0.99265   0.22974   0.00000  Uiso   1.00
C815   C     0.18198   0.99260   0.22827   0.00000  Uiso   1.00
C816   C     0.30777   0.87810   0.44166   0.00000  Uiso   1.00
C817   C     0.06094   0.87365   0.44394   0.00000  Uiso   1.00
C818   C     0.06153   0.91179   0.47778   0.00000  Uiso   1.00
C819   C     0.18295   0.98110   0.58768   0.00000  Uiso   1.00
C820   C     0.26593   0.86994   0.41798   0.00000  Uiso   1.00
C821   C     0.35255   0.85624   0.42886   0.00000  Uiso   1.00
C822   C     0.30750   0.91352   0.47692   0.00000  Uiso   1.00
C823   C     0.01521   0.85816   0.42386   0.00000  Uiso   1.00
C824   C     0.10707   0.85265   0.42912   0.00000  Uiso   1.00
C825   C     0.43476   0.98070   0.59064   0.00000  Uiso   1.00
C826   C     0.47117   0.86921   0.73668   0.00000  Uiso   1.00
C827   C     0.42968   0.85204   0.74504   0.00000  Uiso   1.00
C828   C     0.39015   0.98667   0.64697   0.00000  Uiso   1.00
C829   C     0.47340   0.90803   0.75069   0.00000  Uiso   1.00
C830   C     0.43446   0.99338   0.63103   0.00000  Uiso   1.00
C831   C     0.39227   0.91540   0.78007   0.00000  Uiso   1.00
C832   C     0.18983   0.81284   0.73665   0.00000  Uiso   1.00
C833   C     0.38937   0.87573   0.76568   0.00000  Uiso   1.00
C834   C     0.43327   0.93186   0.77097   0.00000  Uiso   1.00
C835   C     0.14428   0.87180   0.74786   0.00000  Uiso   1.00
C836   C     0.19040   0.85347   0.74644   0.00000  Uiso   1.00
C837   C     0.43147   0.81521   0.74208   0.00000  Uiso   1.00
C838   C     0.18444   0.99190   0.62789   0.00000  Uiso   1.00
C839   C     0.18921   0.93099   0.77312   0.00000  Uiso   1.00
C840   C     0.23589   0.90995   0.76482   0.00000  Uiso   1.00
C841   C     0.43279   0.97226   0.78412   0.00000  Uiso   1.00
C842   C     0.14354   0.91175   0.76137   0.00000  Uiso   1.00
C843   C     0.23698   0.87347   0.75394   0.00000  Uiso   1.00
C844   C     0.18544   0.97202   0.78970   0.00000  Uiso   1.00
C845   C     0.13817   0.99153   0.64565   0.00000  Uiso   1.00
C846   C     0.23135   0.99928   0.65007   0.00000  Uiso   1.00
C847   C     0.38898   0.99486   0.68412   0.00000  Uiso   1.00
C848   C     0.02497   0.82357   0.87112   0.00000  Uiso   1.00
C849   C     0.02473   0.85438   0.90829   0.00000  Uiso   1.00
C850   C     0.11029   0.84073   0.86271   0.00000  Uiso   1.00
C851   C     0.11150   0.87099   0.90036   0.00000  Uiso   1.00
C852   C     0.06781   0.81672   0.84734   0.00000  Uiso   1.00
C853   C     0.06733   0.87785   0.92309   0.00000  Uiso   1.00
C854   C     0.06595   0.91231   0.95821   0.00000  Uiso   1.00
C855   C     0.25954   0.82973   0.87088   0.00000  Uiso   1.00
C856   C     0.26303   0.85580   0.90933   0.00000  Uiso   1.00
C857   C     0.35222   0.82596   0.86814   0.00000  Uiso   1.00
C858   C     0.35539   0.85466   0.90629   0.00000  Uiso   1.00
C859   C     0.30621   0.79048   0.80816   0.00000  Uiso   1.00
C860   C     0.30454   0.81561   0.84884   0.00000  Uiso   1.00
C861   C     0.31034   0.87162   0.92539   0.00000  Uiso   1.00
C862   C     0.31389   0.90724   0.96413   0.00000  Uiso   1.00
C863   C     0.06369   0.78959   0.80678   0.00000  Uiso   1.00
C864   C     0.31700   0.99979   0.98571   0.00000  Uiso   1.00
C865   C     0.94204   0.03641   0.05815   0.00000  Uiso   1.00
C866   C     0.99144   0.12912   0.13939   0.00000  Uiso   1.00
C867   C     0.94476   0.07560   0.08974   0.00000  Uiso   1.00
C868   C     0.65002   0.12969   0.14012   0.00000  Uiso   1.00
C869   C     0.64753   0.09281   0.11028   0.00000  Uiso   1.00
C870   C     0.73795   0.13646   0.12864   0.00000  Uiso   1.00
C871   C     0.73687   0.09808   0.09835   0.00000  Uiso   1.00
C872   C     0.69653   0.15117   0.15109   0.00000  Uiso   1.00
C873   C     0.69211   0.07577   0.09057   0.00000  Uiso   1.00
C874   C     0.69189   0.03411   0.06145   0.00000  Uiso   1.00
C875   C     0.94478   0.14818   0.15350   0.00000  Uiso   1.00
C876   C     0.99043   0.09262   0.10700   0.00000  Uiso   1.00
C877   C     0.89910   0.13374   0.13488   0.00000  Uiso   1.00
C878   C     0.89847   0.09689   0.10356   0.00000  Uiso   1.00
C879   C     0.94253   0.18618   0.18875   0.00000  Uiso   1.00
C880   C     0.69528   0.18706   0.18788   0.00000  Uiso   1.00
C881   C     0.61679   0.13271   0.30065   0.00000  Uiso   1.00
C882   C     0.61482   0.15751   0.28485   0.00000  Uiso   1.00
C883   C     0.52442   0.16326   0.29491   0.00000  Uiso   1.00
C884   C     0.56513   0.20091   0.26907   0.00000  Uiso   1.00
C885   C     0.56808   0.17345   0.28373   0.00000  Uiso   1.00
C886   C     0.56811   0.08477   0.30850   0.00000  Uiso   1.00
C887   C     0.56980   0.11931   0.30687   0.00000  Uiso   1.00
C888   C     0.52342   0.13620   0.30595   0.00000  Uiso   1.00
C889   C     0.56054   0.02819   0.35949   0.00000  Uiso   1.00
C890   C     0.81176   0.11404   0.30114   0.00000  Uiso   1.00
C891   C     0.76710   0.16559   0.29731   0.00000  Uiso   1.00
C892   C     0.85336   0.11784   0.28149   0.00000  Uiso   1.00
C893   C     0.81208   0.08484   0.31139   0.00000  Uiso   1.00
C894   C     0.85222   0.14312   0.26892   0.00000  Uiso   1.00
C895   C     0.76934   0.13672   0.30826   0.00000  Uiso   1.00
C896   C     0.81244   0.02780   0.36245   0.00000  Uiso   1.00
C897   C     0.81156   0.20035   0.26923   0.00000  Uiso   1.00
C898   C     0.81085   0.16928   0.27796   0.00000  Uiso   1.00
C899   C     0.80981   0.02428   0.39623   0.00000  Uiso   1.00
C900   C     0.55951   0.02726   0.39512   0.00000  Uiso   1.00
C901   C     0.93370   0.00001   0.23351   0.00000  Uiso   1.00
C902   C     0.85439   0.03098   0.41917   0.00000  Uiso   1.00
C903   C     0.92970   0.08534   0.59403   0.00000  Uiso   1.00
C904   C     0.80579   0.01183   0.45815   0.00000  Uiso   1.00
C905   C     0.60163   0.02970   0.44940   0.00000  Uiso   1.00
C906   C     0.69142   0.04716   0.56158   0.00000  Uiso   1.00
C907   C     0.76354   0.01177   0.40504   0.00000  Uiso   1.00
C908   C     0.85290   0.02320   0.44957   0.00000  Uiso   1.00
C909   C     0.55502   0.01983   0.46013   0.00000  Uiso   1.00
C910   C     0.93212   0.04295   0.56556   0.00000  Uiso   1.00
C911   C     0.60285   0.03569   0.41806   0.00000  Uiso   1.00
C912   C     0.51359   0.02201   0.40783   0.00000  Uiso   1.00
C913   C     0.55626   0.00808   0.48875   0.00000  Uiso   1.00
C914   C     0.69058   0.08773   0.59064   0.00000  Uiso   1.00
C915   C     0.51093   0.01938   0.44106   0.00000  Uiso   1.00
C916   C     0.76314   0.00533   0.43508   0.00000  Uiso   1.00
C917   C     0.93661   0.01270   0.70631   0.00000  Uiso   1.00
C918   C     0.63616   0.01770   0.69104   0.00000  Uiso   1.00
C919   C     0.93530   0.02756   0.74700   0.00000  Uiso   1.00
C920   C     0.88721   0.13683   0.64800   0.00000  Uiso   1.00
C921   C     0.63937   0.14221   0.64121   0.00000  Uiso   1.00
C922   C     0.93348   0.15872   0.65635   0.00000  Uiso   1.00
C923   C     0.88658   0.09971   0.61901   0.00000  Uiso   1.00
C924   C     0.73132   0.14772   0.63623   0.00000  Uiso   1.00
C925   C     0.64336   0.10507   0.60812   0.00000  Uiso   1.00
C926   C     0.68562   0.19857   0.69066   0.00000  Uiso   1.00
C927   C     0.68701   0.16190   0.65552   0.00000  Uiso   1.00
C928   C     0.93505   0.19804   0.69245   0.00000  Uiso   1.00
C929   C     0.81263   0.21738   0.78615   0.00000  Uiso   1.00
C930   C     0.73469   0.11034   0.60441   0.00000  Uiso   1.00
C931   C     0.72565   0.00124   0.68788   0.00000  Uiso   1.00
C932   C     0.97371   0.14577   0.62940   0.00000  Uiso   1.00
C933   C     0.55947   0.22100   0.79017   0.00000  Uiso   1.00
C934   C     0.68136   0.02503   0.74867   0.00000  Uiso   1.00
C935   C     0.98485   0.00290   0.65100   0.00000  Uiso   1.00
C936   C     0.68137   0.01338   0.70768   0.00000  Uiso   1.00
C937   C     0.98327   0.01505   0.68931   0.00000  Uiso   1.00
C938   C     0.63568   0.00830   0.65288   0.00000  Uiso   1.00
C939   C     0.97210   0.10861   0.60017   0.00000  Uiso   1.00
C940   C     0.59343   0.04673   0.93030   0.00000  Uiso   1.00
C941   C     0.85675   0.02973   0.94902   0.00000  Uiso   1.00
C942   C     0.55455   0.10829   0.83386   0.00000  Uiso   1.00
C943   C     0.51370   0.01208   0.90595   0.00000  Uiso   1.00
C944   C     0.55674   0.03874   0.87014   0.00000  Uiso   1.00
C945   C     0.76402   0.02659   0.91351   0.00000  Uiso   1.00
C946   C     0.55270   0.03440   0.90361   0.00000  Uiso   1.00
C947   C     0.80925   0.04318   0.87087   0.00000  Uiso   1.00
C948   C     0.80779   0.10535   0.83124   0.00000  Uiso   1.00
C949   C     0.76713   0.18441   0.81461   0.00000  Uiso   1.00
C950   C     0.80750   0.03970   0.90425   0.00000  Uiso   1.00
C951   C     0.85397   0.04243   0.92296   0.00000  Uiso   1.00
C952   C     0.59429   0.03696   0.95855   0.00000  Uiso   1.00
C953   C     0.81091   0.01530   0.95737   0.00000  Uiso   1.00
C954   C     0.55523   0.01249   0.95934   0.00000  Uiso   1.00
C955   C     0.55382   0.14473   0.83392   0.00000  Uiso   1.00
C956   C     0.55656   0.19950   0.81095   0.00000  Uiso   1.00
C957   C     0.81019   0.14130   0.83096   0.00000  Uiso   1.00
C958   C     0.76352   0.01820   0.94363   0.00000  Uiso   1.00
C959   C     0.85702   0.15085   0.82069   0.00000  Uiso   1.00
C960   C     0.50909   0.18291   0.81304   0.00000  Uiso   1.00
C961   C     0.76559   0.15758   0.82605   0.00000  Uiso   1.00
C962   C     0.60265   0.19140   0.82388   0.00000  Uiso   1.00
C963   C     0.60139   0.16385   0.83455   0.00000  Uiso   1.00
C964   C     0.50878   0.15614   0.82334   0.00000  Uiso   1.00
C965   C     0.85862   0.17840   0.80925   0.00000  Uiso   1.00
C966   C     0.55564   0.00127   0.98835   0.00000  Uiso   1.00
C967   C     0.81212   0.19321   0.80370   0.00000  Uiso   1.00
C968   C     0.51314   0.00115   0.93308   0.00000  Uiso   1.00
C969   C     0.68926   0.39770   0.17719   0.00000  Uiso   1.00
C970   C     0.68566   0.45847   0.09324   0.00000  Uiso   1.00
C971   C     0.94110   0.45258   0.12480   0.00000  Uiso   1.00
C972   C     0.98776   0.46448   0.07822   0.00000  Uiso   1.00
C973   C     0.68381   0.45599   0.12816   0.00000  Uiso   1.00
C974   C     0.94123   0.47674   0.03386   0.00000  Uiso   1.00
C975   C     0.89080   0.31231   0.18447   0.00000  Uiso   1.00
C976   C     0.68558   0.48159   0.03756   0.00000  Uiso   1.00
C977   C     0.64270   0.45270   0.06983   0.00000  Uiso   1.00
C978   C     0.73119   0.47429   0.08564   0.00000  Uiso   1.00
C979   C     0.94449   0.45402   0.08935   0.00000  Uiso   1.00
C980   C     0.93430   0.39497   0.17346   0.00000  Uiso   1.00
C981   C     0.73112   0.48667   0.05986   0.00000  Uiso   1.00
C982   C     0.89932   0.45851   0.03977   0.00000  Uiso   1.00
C983   C     0.69008   0.36149   0.17807   0.00000  Uiso   1.00
C984   C     0.98812   0.47718   0.05255   0.00000  Uiso   1.00
C985   C     0.89160   0.33911   0.17288   0.00000  Uiso   1.00
C986   C     0.89932   0.44801   0.06788   0.00000  Uiso   1.00
C987   C     0.94029   0.49749   0.01323   0.00000  Uiso   1.00
C988   C     0.64277   0.46488   0.04310   0.00000  Uiso   1.00
C989   C     0.64474   0.33992   0.17126   0.00000  Uiso   1.00
C990   C     0.73268   0.35236   0.19260   0.00000  Uiso   1.00
C991   C     0.98373   0.34857   0.18608   0.00000  Uiso   1.00
C992   C     0.93663   0.35886   0.17543   0.00000  Uiso   1.00
C993   C     0.64479   0.30909   0.17792   0.00000  Uiso   1.00
C994   C     0.93540   0.30619   0.19981   0.00000  Uiso   1.00
C995   C     0.98182   0.32208   0.19723   0.00000  Uiso   1.00
C996   C     0.68879   0.30141   0.19457   0.00000  Uiso   1.00
C997   C     0.77291   0.35468   0.36547   0.00000  Uiso   1.00
C998   C     0.85637   0.49751   0.34958   0.00000  Uiso   1.00
C999   C     0.81096   0.48006   0.25537   0.00000  Uiso   1.00
C1000  C     0.81841   0.33690   0.34560   0.00000  Uiso   1.00
C1001  C     0.61328   0.35823   0.35345   0.00000  Uiso   1.00
C1002  C     0.56480   0.48754   0.29398   0.00000  Uiso   1.00
C1003  C     0.93690   0.28325   0.21789   0.00000  Uiso   1.00
C1004  C     0.56386   0.29956   0.30583   0.00000  Uiso   1.00
C1005  C     0.56763   0.33554   0.34323   0.00000  Uiso   1.00
C1006  C     0.86399   0.35490   0.35863   0.00000  Uiso   1.00
C1007  C     0.61495   0.39328   0.38673   0.00000  Uiso   1.00
C1008  C     0.61097   0.49011   0.34717   0.00000  Uiso   1.00
C1009  C     0.81731   0.30055   0.31111   0.00000  Uiso   1.00
C1010  C     0.86558   0.39352   0.38635   0.00000  Uiso   1.00
C1011  C     0.52575   0.34967   0.36657   0.00000  Uiso   1.00
C1012  C     0.68554   0.27883   0.21294   0.00000  Uiso   1.00
C1013  C     0.61035   0.48151   0.30887   0.00000  Uiso   1.00
C1014  C     0.81199   0.49069   0.29616   0.00000  Uiso   1.00
C1015  C     0.56241   0.47804   0.25416   0.00000  Uiso   1.00
C1016  C     0.85516   0.48275   0.31152   0.00000  Uiso   1.00
C1017  C     0.77445   0.39125   0.39584   0.00000  Uiso   1.00
C1018  C     0.73357   0.32361   0.20054   0.00000  Uiso   1.00
C1019  C     0.69544   0.48212   0.54016   0.00000  Uiso   1.00
C1020  C     0.57041   0.44850   0.43808   0.00000  Uiso   1.00
C1021  C     0.89330   0.46337   0.58084   0.00000  Uiso   1.00
C1022  C     0.65094   0.46036   0.57793   0.00000  Uiso   1.00
C1023  C     0.93835   0.47936   0.53747   0.00000  Uiso   1.00
C1024  C     0.89169   0.47171   0.55056   0.00000  Uiso   1.00
C1025  C     0.93925   0.49315   0.50923   0.00000  Uiso   1.00
C1026  C     0.81960   0.41257   0.40431   0.00000  Uiso   1.00
C1027  C     0.65264   0.46495   0.54683   0.00000  Uiso   1.00
C1028  C     0.81752   0.45413   0.43094   0.00000  Uiso   1.00
C1029  C     0.57268   0.40626   0.41215   0.00000  Uiso   1.00
C1030  C     0.98627   0.47382   0.58633   0.00000  Uiso   1.00
C1031  C     0.98521   0.48078   0.55605   0.00000  Uiso   1.00
C1032  C     0.73788   0.49162   0.56418   0.00000  Uiso   1.00
C1033  C     0.73699   0.48289   0.59341   0.00000  Uiso   1.00
C1034  C     0.69179   0.49315   0.51168   0.00000  Uiso   1.00
C1035  C     0.52712   0.38501   0.40043   0.00000  Uiso   1.00
C1036  C     0.97369   0.33072   0.69680   0.00000  Uiso   1.00
C1037  C     0.64201   0.35247   0.72870   0.00000  Uiso   1.00
C1038  C     0.72920   0.36290   0.69670   0.00000  Uiso   1.00
C1039  C     0.93962   0.47016   0.63803   0.00000  Uiso   1.00
C1040  C     0.72857   0.33461   0.70612   0.00000  Uiso   1.00
C1041  C     0.64211   0.38171   0.72016   0.00000  Uiso   1.00
C1042  C     0.68680   0.29979   0.73509   0.00000  Uiso   1.00
C1043  C     0.68542   0.32979   0.72378   0.00000  Uiso   1.00
C1044  C     0.68930   0.42077   0.69876   0.00000  Uiso   1.00
C1045  C     0.68590   0.38723   0.70392   0.00000  Uiso   1.00
C1046  C     0.97702   0.36122   0.69129   0.00000  Uiso   1.00
C1047  C     0.88179   0.34183   0.70864   0.00000  Uiso   1.00
C1048  C     0.88477   0.37279   0.70360   0.00000  Uiso   1.00
C1049  C     0.69308   0.46945   0.63818   0.00000  Uiso   1.00
C1050  C     0.92725   0.29582   0.72534   0.00000  Uiso   1.00
C1051  C     0.92630   0.32156   0.70809   0.00000  Uiso   1.00
C1052  C     0.93824   0.41664   0.69247   0.00000  Uiso   1.00
C1053  C     0.93343   0.38283   0.69595   0.00000  Uiso   1.00
C1054  C     0.94069   0.46723   0.60042   0.00000  Uiso   1.00
C1055  C     0.69547   0.46725   0.60044   0.00000  Uiso   1.00
C1056  C     0.51341   0.40338   0.89123   0.00000  Uiso   1.00
C1057  C     0.60639   0.36865   0.86172   0.00000  Uiso   1.00
C1058  C     0.60622   0.40353   0.89473   0.00000  Uiso   1.00
C1059  C     0.56125   0.35053   0.84298   0.00000  Uiso   1.00
C1060  C     0.56017   0.42187   0.90998   0.00000  Uiso   1.00
C1061  C     0.56163   0.46219   0.93873   0.00000  Uiso   1.00
C1062  C     0.51417   0.36743   0.85913   0.00000  Uiso   1.00
C1063  C     0.81322   0.42573   0.90968   0.00000  Uiso   1.00
C1064  C     0.76735   0.37249   0.86035   0.00000  Uiso   1.00
C1065  C     0.76814   0.40801   0.89084   0.00000  Uiso   1.00
C1066  C     0.85966   0.36865   0.86398   0.00000  Uiso   1.00
C1067  C     0.85987   0.40675   0.89477   0.00000  Uiso   1.00
C1068  C     0.81086   0.46492   0.93904   0.00000  Uiso   1.00
C1069  C     0.81348   0.35278   0.84540   0.00000  Uiso   1.00
C1070  C     0.81292   0.31480   0.81090   0.00000  Uiso   1.00
C1071  C     0.56440   0.31308   0.80996   0.00000  Uiso   1.00
C1072  C     0.93473   0.59684   0.03826   0.00000  Uiso   1.00
C1073  C     0.64235   0.66938   0.13595   0.00000  Uiso   1.00
C1074  C     0.64339   0.64053   0.09767   0.00000  Uiso   1.00
C1075  C     0.73455   0.67290   0.13287   0.00000  Uiso   1.00
C1076  C     0.73383   0.64606   0.09498   0.00000  Uiso   1.00
C1077  C     0.94126   0.68614   0.15225   0.00000  Uiso   1.00
C1078  C     0.68983   0.68352   0.15426   0.00000  Uiso   1.00
C1079  C     0.68767   0.63091   0.07645   0.00000  Uiso   1.00
C1080  C     0.68776   0.59705   0.03655   0.00000  Uiso   1.00
C1081  C     0.93703   0.63004   0.07676   0.00000  Uiso   1.00
C1082  C     0.69109   0.70710   0.19578   0.00000  Uiso   1.00
C1083  C     0.89749   0.66378   0.13787   0.00000  Uiso   1.00
C1084  C     0.89443   0.63661   0.10030   0.00000  Uiso   1.00
C1085  C     0.98205   0.68147   0.12733   0.00000  Uiso   1.00
C1086  C     0.98132   0.65356   0.09113   0.00000  Uiso   1.00
C1087  C     0.94439   0.71243   0.19426   0.00000  Uiso   1.00
C1088  C     0.68293   0.50053   0.01444   0.00000  Uiso   1.00
C1089  C     0.82667   0.68580   0.25532   0.00000  Uiso   1.00
C1090  C     0.56690   0.50631   0.37004   0.00000  Uiso   1.00
C1091  C     0.86369   0.62239   0.22533   0.00000  Uiso   1.00
C1092  C     0.52036   0.50161   0.31654   0.00000  Uiso   1.00
C1093  C     0.77818   0.59446   0.24515   0.00000  Uiso   1.00
C1094  C     0.56111   0.53012   0.21155   0.00000  Uiso   1.00
C1095  C     0.56579   0.68875   0.26167   0.00000  Uiso   1.00
C1096  C     0.56450   0.64915   0.25364   0.00000  Uiso   1.00
C1097  C     0.81385   0.51789   0.37388   0.00000  Uiso   1.00
C1098  C     0.81674   0.56860   0.22105   0.00000  Uiso   1.00
C1099  C     0.51873   0.59102   0.24118   0.00000  Uiso   1.00
C1100  C     0.78156   0.63218   0.25488   0.00000  Uiso   1.00
C1101  C     0.52203   0.51456   0.35569   0.00000  Uiso   1.00
C1102  C     0.82332   0.64573   0.24455   0.00000  Uiso   1.00
C1103  C     0.77233   0.52588   0.35837   0.00000  Uiso   1.00
C1104  C     0.86147   0.58400   0.21477   0.00000  Uiso   1.00
C1105  C     0.51928   0.63022   0.25259   0.00000  Uiso   1.00
C1106  C     0.81231   0.52562   0.20607   0.00000  Uiso   1.00
C1107  C     0.56245   0.56959   0.22845   0.00000  Uiso   1.00
C1108  C     0.60840   0.62566   0.24151   0.00000  Uiso   1.00
C1109  C     0.60904   0.58731   0.22860   0.00000  Uiso   1.00
C1110  C     0.77288   0.51311   0.31986   0.00000  Uiso   1.00
C1111  C     0.94262   0.58594   0.52400   0.00000  Uiso   1.00
C1112  C     0.68896   0.62407   0.56113   0.00000  Uiso   1.00
C1113  C     0.69089   0.58660   0.52430   0.00000  Uiso   1.00
C1114  C     0.56505   0.51156   0.40767   0.00000  Uiso   1.00
C1115  C     0.73339   0.64650   0.57578   0.00000  Uiso   1.00
C1116  C     0.94728   0.62368   0.55823   0.00000  Uiso   1.00
C1117  C     0.81301   0.52544   0.41283   0.00000  Uiso   1.00
C1118  C     0.64386   0.63668   0.58281   0.00000  Uiso   1.00
C1119  C     0.99173   0.63563   0.58030   0.00000  Uiso   1.00
C1120  C     0.90271   0.64659   0.56951   0.00000  Uiso   1.00
C1121  C     0.98926   0.66830   0.61576   0.00000  Uiso   1.00
C1122  C     0.94306   0.69111   0.62979   0.00000  Uiso   1.00
C1123  C     0.77302   0.60702   0.73626   0.00000  Uiso   1.00
C1124  C     0.81217   0.69521   0.73730   0.00000  Uiso   1.00
C1125  C     0.60077   0.60722   0.73804   0.00000  Uiso   1.00
C1126  C     0.59863   0.64475   0.74632   0.00000  Uiso   1.00
C1127  C     0.68938   0.68978   0.63460   0.00000  Uiso   1.00
C1128  C     0.51630   0.59424   0.70747   0.00000  Uiso   1.00
C1129  C     0.68959   0.71713   0.67519   0.00000  Uiso   1.00
C1130  C     0.55852   0.69607   0.73919   0.00000  Uiso   1.00
C1131  C     0.55994   0.65563   0.73152   0.00000  Uiso   1.00
C1132  C     0.56104   0.54437   0.71431   0.00000  Uiso   1.00
C1133  C     0.55821   0.58334   0.72149   0.00000  Uiso   1.00
C1134  C     0.51658   0.63145   0.71369   0.00000  Uiso   1.00
C1135  C     0.81528   0.58347   0.71832   0.00000  Uiso   1.00
C1136  C     0.81545   0.54421   0.71007   0.00000  Uiso   1.00
C1137  C     0.81187   0.65720   0.73111   0.00000  Uiso   1.00
C1138  C     0.64381   0.66869   0.61898   0.00000  Uiso   1.00
C1139  C     0.93824   0.71907   0.67043   0.00000  Uiso   1.00
C1140  C     0.77305   0.64444   0.74615   0.00000  Uiso   1.00
C1141  C     0.85403   0.59536   0.70411   0.00000  Uiso   1.00
C1142  C     0.85359   0.63292   0.71067   0.00000  Uiso   1.00
C1143  C     0.73295   0.68030   0.61121   0.00000  Uiso   1.00
C1144  C     0.90103   0.68122   0.60479   0.00000  Uiso   1.00
C1145  C     0.81633   0.51146   0.77105   0.00000  Uiso   1.00
C1146  C     0.56521   0.50639   0.77051   0.00000  Uiso   1.00
C1147  C     0.86244   0.52411   0.83075   0.00000  Uiso   1.00
C1148  C     0.56120   0.53869   0.92200   0.00000  Uiso   1.00
C1149  C     0.81152   0.54374   0.92682   0.00000  Uiso   1.00
C1150  C     0.56304   0.53306   0.88318   0.00000  Uiso   1.00
C1151  C     0.56671   0.52094   0.81139   0.00000  Uiso   1.00
C1152  C     0.81465   0.52185   0.81106   0.00000  Uiso   1.00
C1153  C     0.81350   0.53928   0.88802   0.00000  Uiso   1.00
C1154  C     0.76600   0.53387   0.86750   0.00000  Uiso   1.00
C1155  C     0.85945   0.53437   0.86944   0.00000  Uiso   1.00
C1156  C     0.76808   0.52862   0.83084   0.00000  Uiso   1.00
C1157  C     0.61109   0.52690   0.86579   0.00000  Uiso   1.00
C1158  C     0.61381   0.52016   0.82840   0.00000  Uiso   1.00
C1159  C     0.52210   0.53535   0.83270   0.00000  Uiso   1.00
C1160  C     0.51888   0.54022   0.86933   0.00000  Uiso   1.00
C1161  C     0.97709   0.97080   0.16984   0.00000  Uiso   1.00
C1162  C     0.69053   0.96363   0.11428   0.00000  Uiso   1.00
C1163  C     0.69152   0.95981   0.07546   0.00000  Uiso   1.00
C1164  C     0.93629   0.96526   0.07778   0.00000  Uiso   1.00
C1165  C     0.65034   0.96886   0.16913   0.00000  Uiso   1.00
C1166  C     0.93356   0.96878   0.11641   0.00000  Uiso   1.00
C1167  C     0.64570   0.96064   0.13239   0.00000  Uiso   1.00
C1168  C     0.93320   0.98209   0.19077   0.00000  Uiso   1.00
C1169  C     0.88884   0.97763   0.13746   0.00000  Uiso   1.00
C1170  C     0.88710   0.97935   0.17245   0.00000  Uiso   1.00
C1171  C     0.97855   0.96357   0.13178   0.00000  Uiso   1.00
C1172  C     0.73838   0.98561   0.17249   0.00000  Uiso   1.00
C1173  C     0.73640   0.97391   0.13489   0.00000  Uiso   1.00
C1174  C     0.69386   0.98305   0.19077   0.00000  Uiso   1.00
C1175  C     0.81410   0.80951   0.37224   0.00000  Uiso   1.00
C1176  C     0.94013   0.96058   0.29112   0.00000  Uiso   1.00
C1177  C     0.65455   0.85673   0.26146   0.00000  Uiso   1.00
C1178  C     0.89657   0.90100   0.27365   0.00000  Uiso   1.00
C1179  C     0.73493   0.90674   0.29742   0.00000  Uiso   1.00
C1180  C     0.60969   0.82774   0.39094   0.00000  Uiso   1.00
C1181  C     0.73793   0.86993   0.29298   0.00000  Uiso   1.00
C1182  C     0.65398   0.89284   0.26463   0.00000  Uiso   1.00
C1183  C     0.69602   0.80690   0.26720   0.00000  Uiso   1.00
C1184  C     0.69645   0.84486   0.27304   0.00000  Uiso   1.00
C1185  C     0.56622   0.78317   0.33100   0.00000  Uiso   1.00
C1186  C     0.68798   0.95669   0.28994   0.00000  Uiso   1.00
C1187  C     0.69281   0.91826   0.28443   0.00000  Uiso   1.00
C1188  C     0.81572   0.78172   0.32984   0.00000  Uiso   1.00
C1189  C     0.85941   0.82387   0.39404   0.00000  Uiso   1.00
C1190  C     0.94163   0.84594   0.26902   0.00000  Uiso   1.00
C1191  C     0.94291   0.92117   0.28284   0.00000  Uiso   1.00
C1192  C     0.94237   0.80935   0.26307   0.00000  Uiso   1.00
C1193  C     0.98907   0.86655   0.27755   0.00000  Uiso   1.00
C1194  C     0.56327   0.81266   0.37100   0.00000  Uiso   1.00
C1195  C     0.89582   0.86446   0.26787   0.00000  Uiso   1.00
C1196  C     0.98966   0.90280   0.28221   0.00000  Uiso   1.00
C1197  C     0.51634   0.82909   0.38990   0.00000  Uiso   1.00
C1198  C     0.76755   0.82369   0.39037   0.00000  Uiso   1.00
C1199  C     0.69182   0.99452   0.23155   0.00000  Uiso   1.00
C1200  C     0.56369   0.88041   0.44173   0.00000  Uiso   1.00
C1201  C     0.56487   0.91852   0.47526   0.00000  Uiso   1.00
C1202  C     0.80915   0.90852   0.48009   0.00000  Uiso   1.00
C1203  C     0.80941   0.87261   0.44565   0.00000  Uiso   1.00
C1204  C     0.94019   0.97697   0.58832   0.00000  Uiso   1.00
C1205  C     0.76532   0.85602   0.42488   0.00000  Uiso   1.00
C1206  C     0.60917   0.86173   0.42567   0.00000  Uiso   1.00
C1207  C     0.68240   0.98543   0.59228   0.00000  Uiso   1.00
C1208  C     0.51508   0.86434   0.42344   0.00000  Uiso   1.00
C1209  C     0.85658   0.85534   0.43071   0.00000  Uiso   1.00
C1210  C     0.80670   0.99865   0.48676   0.00000  Uiso   1.00
C1211  C     0.73453   0.92101   0.79018   0.00000  Uiso   1.00
C1212  C     0.72600   0.99046   0.64965   0.00000  Uiso   1.00
C1213  C     0.89804   0.98108   0.64324   0.00000  Uiso   1.00
C1214  C     0.98539   0.87940   0.76365   0.00000  Uiso   1.00
C1215  C     0.89391   0.87612   0.76005   0.00000  Uiso   1.00
C1216  C     0.89458   0.99609   0.68345   0.00000  Uiso   1.00
C1217  C     0.69023   0.93843   0.78729   0.00000  Uiso   1.00
C1218  C     0.68839   0.81951   0.75316   0.00000  Uiso   1.00
C1219  C     0.94127   0.81682   0.74502   0.00000  Uiso   1.00
C1220  C     0.94205   0.98360   0.62672   0.00000  Uiso   1.00
C1221  C     0.98329   0.91841   0.77669   0.00000  Uiso   1.00
C1222  C     0.73322   0.88296   0.78037   0.00000  Uiso   1.00
C1223  C     0.68055   0.99423   0.63152   0.00000  Uiso   1.00
C1224  C     0.64717   0.91537   0.76963   0.00000  Uiso   1.00
C1225  C     0.93933   0.85768   0.75570   0.00000  Uiso   1.00
C1226  C     0.64676   0.87722   0.75787   0.00000  Uiso   1.00
C1227  C     0.68902   0.86078   0.76401   0.00000  Uiso   1.00
C1228  C     0.93654   0.93486   0.77864   0.00000  Uiso   1.00
C1229  C     0.89082   0.91373   0.77107   0.00000  Uiso   1.00
C1230  C     0.93706   0.97515   0.78948   0.00000  Uiso   1.00
C1231  C     0.68859   0.97846   0.79999   0.00000  Uiso   1.00
C1232  C     0.51685   0.85447   0.90775   0.00000  Uiso   1.00
C1233  C     0.60821   0.82852   0.86815   0.00000  Uiso   1.00
C1234  C     0.61112   0.85386   0.90772   0.00000  Uiso   1.00
C1235  C     0.51673   0.82566   0.87092   0.00000  Uiso   1.00
C1236  C     0.56218   0.81327   0.85035   0.00000  Uiso   1.00
C1237  C     0.56424   0.86872   0.92565   0.00000  Uiso   1.00
C1238  C     0.56390   0.90354   0.96267   0.00000  Uiso   1.00
C1239  C     0.81865   0.78752   0.80751   0.00000  Uiso   1.00
C1240  C     0.55992   0.79071   0.80826   0.00000  Uiso   1.00
C1241  C     0.77360   0.81729   0.87087   0.00000  Uiso   1.00
C1242  C     0.77347   0.84589   0.90985   0.00000  Uiso   1.00
C1243  C     0.86452   0.83228   0.86619   0.00000  Uiso   1.00
C1244  C     0.86296   0.86131   0.90293   0.00000  Uiso   1.00
C1245  C     0.81821   0.90404   0.96269   0.00000  Uiso   1.00
C1246  C     0.81884   0.81260   0.84915   0.00000  Uiso   1.00
C1247  C     0.81877   0.86904   0.92410   0.00000  Uiso   1.00
C1248  C     0.81240   0.99760   0.98057   0.00000  Uiso   1.00
O1249  O     0.48502   0.01323   0.05592   0.00000  Uiso   1.00
O1250  O     0.14054   0.01962   0.04950   0.00000  Uiso   1.00
O1251  O     0.23238   0.02119   0.05229   0.00000  Uiso   1.00
O1252  O     0.39507   0.01479   0.05305   0.00000  Uiso   1.00
O1253  O     0.47940   0.19855   0.20504   0.00000  Uiso   1.00
O1254  O     0.10562   0.03175   0.34753   0.00000  Uiso   1.00
O1255  O     0.01880   0.21572   0.26631   0.00000  Uiso   1.00
O1256  O     0.02293   0.06798   0.30331   0.00000  Uiso   1.00
O1257  O     0.14455   0.20569   0.20192   0.00000  Uiso   1.00
O1258  O     0.26347   0.06545   0.30023   0.00000  Uiso   1.00
O1259  O     0.23115   0.19966   0.20627   0.00000  Uiso   1.00
O1260  O     0.11072   0.06453   0.29819   0.00000  Uiso   1.00
O1261  O     0.26380   0.02660   0.34102   0.00000  Uiso   1.00
O1262  O     0.10530   0.21295   0.26212   0.00000  Uiso   1.00
O1263  O     0.35295   0.06796   0.30963   0.00000  Uiso   1.00
O1264  O     0.38989   0.19890   0.20385   0.00000  Uiso   1.00
O1265  O     0.35328   0.02442   0.34102   0.00000  Uiso   1.00
O1266  O     0.34916   0.21141   0.26328   0.00000  Uiso   1.00
O1267  O     0.01672   0.03454   0.34573   0.00000  Uiso   1.00
O1268  O     0.26061   0.21551   0.26827   0.00000  Uiso   1.00
O1269  O     0.47735   0.00679   0.24940   0.00000  Uiso   1.00
O1270  O     0.48149   0.03305   0.55602   0.00000  Uiso   1.00
O1271  O     0.14367   0.02842   0.55224   0.00000  Uiso   1.00
O1272  O     0.23613   0.02960   0.55675   0.00000  Uiso   1.00
O1273  O     0.39030   0.02997   0.55513   0.00000  Uiso   1.00
O1274  O     0.10821   0.22017   0.76153   0.00000  Uiso   1.00
O1275  O     0.38724   0.02835   0.76333   0.00000  Uiso   1.00
O1276  O     0.01883   0.22032   0.76336   0.00000  Uiso   1.00
O1277  O     0.47557   0.03162   0.76450   0.00000  Uiso   1.00
O1278  O     0.39366   0.21402   0.70875   0.00000  Uiso   1.00
O1279  O     0.22729   0.03147   0.76289   0.00000  Uiso   1.00
O1280  O     0.13647   0.21550   0.69893   0.00000  Uiso   1.00
O1281  O     0.35387   0.22914   0.77853   0.00000  Uiso   1.00
O1282  O     0.26372   0.22185   0.76821   0.00000  Uiso   1.00
O1283  O     0.22547   0.21109   0.70231   0.00000  Uiso   1.00
O1284  O     0.48415   0.21060   0.70754   0.00000  Uiso   1.00
O1285  O     0.14191   0.01795   0.75918   0.00000  Uiso   1.00
O1286  O     0.25943   0.04476   0.85872   0.00000  Uiso   1.00
O1287  O     0.09947   0.04784   0.85587   0.00000  Uiso   1.00
O1288  O     0.01140   0.04617   0.85814   0.00000  Uiso   1.00
O1289  O     0.35047   0.03917   0.85468   0.00000  Uiso   1.00
O1290  O     0.26334   0.08796   0.82205   0.00000  Uiso   1.00
O1291  O     0.10805   0.07881   0.80960   0.00000  Uiso   1.00
O1292  O     0.35319   0.08631   0.82090   0.00000  Uiso   1.00
O1293  O     0.01996   0.08968   0.82265   0.00000  Uiso   1.00
O1294  O     0.39105   0.45867   0.14389   0.00000  Uiso   1.00
O1295  O     0.47790   0.45284   0.14373   0.00000  Uiso   1.00
O1296  O     0.14492   0.41168   0.17481   0.00000  Uiso   1.00
O1297  O     0.13964   0.45228   0.13887   0.00000  Uiso   1.00
O1298  O     0.47509   0.41873   0.18573   0.00000  Uiso   1.00
O1299  O     0.22898   0.45824   0.14405   0.00000  Uiso   1.00
O1300  O     0.38629   0.41674   0.18201   0.00000  Uiso   1.00
O1301  O     0.23269   0.41865   0.18415   0.00000  Uiso   1.00
O1302  O     0.23272   0.27843   0.22901   0.00000  Uiso   1.00
O1303  O     0.01676   0.28728   0.29657   0.00000  Uiso   1.00
O1304  O     0.35051   0.47416   0.23769   0.00000  Uiso   1.00
O1305  O     0.36023   0.28401   0.29204   0.00000  Uiso   1.00
O1306  O     0.01810   0.47292   0.23778   0.00000  Uiso   1.00
O1307  O     0.39174   0.26854   0.22357   0.00000  Uiso   1.00
O1308  O     0.48147   0.27468   0.22645   0.00000  Uiso   1.00
O1309  O     0.10748   0.46642   0.23504   0.00000  Uiso   1.00
O1310  O     0.10804   0.28902   0.29134   0.00000  Uiso   1.00
O1311  O     0.14519   0.27329   0.22203   0.00000  Uiso   1.00
O1312  O     0.26980   0.28424   0.29766   0.00000  Uiso   1.00
O1313  O     0.26103   0.47968   0.24065   0.00000  Uiso   1.00
O1314  O     0.39383   0.49189   0.49624   0.00000  Uiso   1.00
O1315  O     0.02201   0.46721   0.44223   0.00000  Uiso   1.00
O1316  O     0.11290   0.47215   0.44717   0.00000  Uiso   1.00
O1317  O     0.48199   0.49541   0.49926   0.00000  Uiso   1.00
O1318  O     0.27257   0.46818   0.44580   0.00000  Uiso   1.00
O1319  O     0.36548   0.46685   0.44725   0.00000  Uiso   1.00
O1320  O     0.48147   0.46255   0.65225   0.00000  Uiso   1.00
O1321  O     0.40083   0.42729   0.69113   0.00000  Uiso   1.00
O1322  O     0.14823   0.28760   0.72928   0.00000  Uiso   1.00
O1323  O     0.39216   0.46237   0.65162   0.00000  Uiso   1.00
O1324  O     0.23415   0.42791   0.68713   0.00000  Uiso   1.00
O1325  O     0.39407   0.28654   0.73444   0.00000  Uiso   1.00
O1326  O     0.23527   0.28142   0.72723   0.00000  Uiso   1.00
O1327  O     0.14240   0.42677   0.68949   0.00000  Uiso   1.00
O1328  O     0.23088   0.47467   0.65501   0.00000  Uiso   1.00
O1329  O     0.10448   0.30091   0.79399   0.00000  Uiso   1.00
O1330  O     0.26411   0.29635   0.79070   0.00000  Uiso   1.00
O1331  O     0.14092   0.47070   0.65462   0.00000  Uiso   1.00
O1332  O     0.48913   0.42954   0.69202   0.00000  Uiso   1.00
O1333  O     0.01610   0.29642   0.79836   0.00000  Uiso   1.00
O1334  O     0.35280   0.30101   0.79518   0.00000  Uiso   1.00
O1335  O     0.48147   0.27821   0.72784   0.00000  Uiso   1.00
O1336  O     0.27116   0.49031   0.74996   0.00000  Uiso   1.00
O1337  O     0.35975   0.48683   0.74984   0.00000  Uiso   1.00
O1338  O     0.10556   0.49607   0.75106   0.00000  Uiso   1.00
O1339  O     0.10368   0.48179   0.95071   0.00000  Uiso   1.00
O1340  O     0.26210   0.48374   0.94844   0.00000  Uiso   1.00
O1341  O     0.35153   0.48110   0.95275   0.00000  Uiso   1.00
O1342  O     0.01285   0.48465   0.94739   0.00000  Uiso   1.00
O1343  O     0.14003   0.57829   0.02282   0.00000  Uiso   1.00
O1344  O     0.39236   0.57787   0.02192   0.00000  Uiso   1.00
O1345  O     0.23007   0.58243   0.02452   0.00000  Uiso   1.00
O1346  O     0.48050   0.57782   0.02054   0.00000  Uiso   1.00
O1347  O     0.48164   0.50803   0.00379   0.00000  Uiso   1.00
O1348  O     0.14294   0.50730   0.00463   0.00000  Uiso   1.00
O1349  O     0.23267   0.50931   0.00826   0.00000  Uiso   1.00
O1350  O     0.39084   0.50785   0.00508   0.00000  Uiso   1.00
O1351  O     0.13836   0.72536   0.21181   0.00000  Uiso   1.00
O1352  O     0.22865   0.71978   0.20718   0.00000  Uiso   1.00
O1353  O     0.49094   0.71914   0.20967   0.00000  Uiso   1.00
O1354  O     0.27343   0.70304   0.25392   0.00000  Uiso   1.00
O1355  O     0.36356   0.70609   0.26516   0.00000  Uiso   1.00
O1356  O     0.01737   0.70450   0.26205   0.00000  Uiso   1.00
O1357  O     0.25910   0.51479   0.20644   0.00000  Uiso   1.00
O1358  O     0.10738   0.70353   0.26284   0.00000  Uiso   1.00
O1359  O     0.40129   0.72391   0.21165   0.00000  Uiso   1.00
O1360  O     0.34735   0.51657   0.20828   0.00000  Uiso   1.00
O1361  O     0.01464   0.51076   0.20475   0.00000  Uiso   1.00
O1362  O     0.10338   0.51038   0.20389   0.00000  Uiso   1.00
O1363  O     0.49068   0.56298   0.51265   0.00000  Uiso   1.00
O1364  O     0.40007   0.56221   0.51104   0.00000  Uiso   1.00
O1365  O     0.02229   0.51474   0.42193   0.00000  Uiso   1.00
O1366  O     0.15133   0.57167   0.50348   0.00000  Uiso   1.00
O1367  O     0.23818   0.56768   0.51273   0.00000  Uiso   1.00
O1368  O     0.11143   0.52186   0.42629   0.00000  Uiso   1.00
O1369  O     0.36034   0.51763   0.42599   0.00000  Uiso   1.00
O1370  O     0.26976   0.52101   0.42876   0.00000  Uiso   1.00
O1371  O     0.23390   0.50330   0.50430   0.00000  Uiso   1.00
O1372  O     0.14303   0.50879   0.50787   0.00000  Uiso   1.00
O1373  O     0.01921   0.70832   0.73636   0.00000  Uiso   1.00
O1374  O     0.13898   0.72523   0.68430   0.00000  Uiso   1.00
O1375  O     0.02104   0.52888   0.71244   0.00000  Uiso   1.00
O1376  O     0.10747   0.70843   0.73066   0.00000  Uiso   1.00
O1377  O     0.22902   0.72231   0.68899   0.00000  Uiso   1.00
O1378  O     0.35981   0.71104   0.74262   0.00000  Uiso   1.00
O1379  O     0.48097   0.72159   0.69041   0.00000  Uiso   1.00
O1380  O     0.38983   0.72193   0.68902   0.00000  Uiso   1.00
O1381  O     0.36212   0.52395   0.71022   0.00000  Uiso   1.00
O1382  O     0.26876   0.70710   0.73804   0.00000  Uiso   1.00
O1383  O     0.27317   0.52636   0.71480   0.00000  Uiso   1.00
O1384  O     0.11119   0.52449   0.70675   0.00000  Uiso   1.00
O1385  O     0.01677   0.50084   0.75439   0.00000  Uiso   1.00
O1386  O     0.10750   0.53594   0.93745   0.00000  Uiso   1.00
O1387  O     0.35609   0.53914   0.93748   0.00000  Uiso   1.00
O1388  O     0.26664   0.54077   0.94007   0.00000  Uiso   1.00
O1389  O     0.01757   0.54150   0.93911   0.00000  Uiso   1.00
O1390  O     0.39618   0.95921   0.06397   0.00000  Uiso   1.00
O1391  O     0.22718   0.96428   0.06282   0.00000  Uiso   1.00
O1392  O     0.48620   0.95170   0.05890   0.00000  Uiso   1.00
O1393  O     0.13640   0.96182   0.06055   0.00000  Uiso   1.00
O1394  O     0.39424   0.97448   0.29419   0.00000  Uiso   1.00
O1395  O     0.35936   0.77968   0.30995   0.00000  Uiso   1.00
O1396  O     0.14717   0.79469   0.27275   0.00000  Uiso   1.00
O1397  O     0.02148   0.77845   0.31147   0.00000  Uiso   1.00
O1398  O     0.11111   0.77225   0.31465   0.00000  Uiso   1.00
O1399  O     0.23495   0.78976   0.25668   0.00000  Uiso   1.00
O1400  O     0.39945   0.79452   0.26758   0.00000  Uiso   1.00
O1401  O     0.26895   0.77541   0.30653   0.00000  Uiso   1.00
O1402  O     0.49017   0.79432   0.26788   0.00000  Uiso   1.00
O1403  O     0.22849   0.97030   0.28206   0.00000  Uiso   1.00
O1404  O     0.48487   0.97486   0.28944   0.00000  Uiso   1.00
O1405  O     0.14159   0.97650   0.29491   0.00000  Uiso   1.00
O1406  O     0.13928   0.99704   0.24727   0.00000  Uiso   1.00
O1407  O     0.38988   0.99759   0.24574   0.00000  Uiso   1.00
O1408  O     0.22854   0.99990   0.24237   0.00000  Uiso   1.00
O1409  O     0.35357   0.92954   0.49003   0.00000  Uiso   1.00
O1410  O     0.01678   0.92611   0.49424   0.00000  Uiso   1.00
O1411  O     0.10390   0.93080   0.48834   0.00000  Uiso   1.00
O1412  O     0.26367   0.93050   0.49100   0.00000  Uiso   1.00
O1413  O     0.38893   0.97840   0.57368   0.00000  Uiso   1.00
O1414  O     0.13935   0.97946   0.57105   0.00000  Uiso   1.00
O1415  O     0.47970   0.98023   0.57501   0.00000  Uiso   1.00
O1416  O     0.22723   0.97876   0.57202   0.00000  Uiso   1.00
O1417  O     0.01202   0.99708   0.49631   0.00000  Uiso   1.00
O1418  O     0.26874   0.99861   0.49761   0.00000  Uiso   1.00
O1419  O     0.10237   0.99847   0.49458   0.00000  Uiso   1.00
O1420  O     0.35762   0.99291   0.49390   0.00000  Uiso   1.00
O1421  O     0.10608   0.78346   0.78616   0.00000  Uiso   1.00
O1422  O     0.47739   0.98948   0.78991   0.00000  Uiso   1.00
O1423  O     0.01701   0.78107   0.79146   0.00000  Uiso   1.00
O1424  O     0.26069   0.78096   0.78965   0.00000  Uiso   1.00
O1425  O     0.47735   0.79988   0.73877   0.00000  Uiso   1.00
O1426  O     0.38824   0.79795   0.74049   0.00000  Uiso   1.00
O1427  O     0.14496   0.79600   0.73229   0.00000  Uiso   1.00
O1428  O     0.35175   0.78301   0.79117   0.00000  Uiso   1.00
O1429  O     0.23341   0.79857   0.74116   0.00000  Uiso   1.00
O1430  O     0.22935   0.99133   0.79379   0.00000  Uiso   1.00
O1431  O     0.38834   0.98925   0.79137   0.00000  Uiso   1.00
O1432  O     0.14040   0.98678   0.79806   0.00000  Uiso   1.00
O1433  O     0.02068   0.92793   0.97378   0.00000  Uiso   1.00
O1434  O     0.35884   0.91910   0.98114   0.00000  Uiso   1.00
O1435  O     0.11000   0.92500   0.97623   0.00000  Uiso   1.00
O1436  O     0.26849   0.92415   0.97868   0.00000  Uiso   1.00
O1437  O     0.36086   0.98960   0.99529   0.00000  Uiso   1.00
O1438  O     0.01946   0.99631   0.99691   0.00000  Uiso   1.00
O1439  O     0.27085   0.99444   0.99674   0.00000  Uiso   1.00
O1440  O     0.10821   0.99600   0.99522   0.00000  Uiso   1.00
O1441  O     0.64633   0.01755   0.05393   0.00000  Uiso   1.00
O1442  O     0.98695   0.01751   0.04968   0.00000  Uiso   1.00
O1443  O     0.89581   0.01932   0.04470   0.00000  Uiso   1.00
O1444  O     0.73550   0.01503   0.04587   0.00000  Uiso   1.00
O1445  O     0.76728   0.06816   0.30772   0.00000  Uiso   1.00
O1446  O     0.51561   0.02796   0.34321   0.00000  Uiso   1.00
O1447  O     0.85631   0.02967   0.34807   0.00000  Uiso   1.00
O1448  O     0.89018   0.00218   0.25000   0.00000  Uiso   1.00
O1449  O     0.97849   0.00328   0.24894   0.00000  Uiso   1.00
O1450  O     0.76837   0.21632   0.26830   0.00000  Uiso   1.00
O1451  O     0.52224   0.07172   0.30964   0.00000  Uiso   1.00
O1452  O     0.61078   0.06598   0.30469   0.00000  Uiso   1.00
O1453  O     0.76598   0.02637   0.34584   0.00000  Uiso   1.00
O1454  O     0.60945   0.20840   0.25828   0.00000  Uiso   1.00
O1455  O     0.85670   0.06714   0.30941   0.00000  Uiso   1.00
O1456  O     0.60500   0.02526   0.34298   0.00000  Uiso   1.00
O1457  O     0.51941   0.21363   0.26651   0.00000  Uiso   1.00
O1458  O     0.85510   0.20589   0.25729   0.00000  Uiso   1.00
O1459  O     0.73894   0.20464   0.20471   0.00000  Uiso   1.00
O1460  O     0.89872   0.19831   0.20603   0.00000  Uiso   1.00
O1461  O     0.98512   0.20201   0.20374   0.00000  Uiso   1.00
O1462  O     0.73414   0.00604   0.25071   0.00000  Uiso   1.00
O1463  O     0.64923   0.20030   0.20135   0.00000  Uiso   1.00
O1464  O     0.51266   0.00030   0.49869   0.00000  Uiso   1.00
O1465  O     0.73586   0.02694   0.55390   0.00000  Uiso   1.00
O1466  O     0.97681   0.02670   0.55754   0.00000  Uiso   1.00
O1467  O     0.64566   0.03086   0.54887   0.00000  Uiso   1.00
O1468  O     0.88732   0.02534   0.55737   0.00000  Uiso   1.00
O1469  O     0.60062   0.00442   0.50100   0.00000  Uiso   1.00
O1470  O     0.85691   0.23003   0.78025   0.00000  Uiso   1.00
O1471  O     0.76883   0.22535   0.77484   0.00000  Uiso   1.00
O1472  O     0.60637   0.23226   0.78475   0.00000  Uiso   1.00
O1473  O     0.89162   0.21086   0.71114   0.00000  Uiso   1.00
O1474  O     0.64208   0.21184   0.70918   0.00000  Uiso   1.00
O1475  O     0.89046   0.02864   0.76274   0.00000  Uiso   1.00
O1476  O     0.73071   0.21523   0.70510   0.00000  Uiso   1.00
O1477  O     0.97871   0.03436   0.76452   0.00000  Uiso   1.00
O1478  O     0.51624   0.22702   0.77620   0.00000  Uiso   1.00
O1479  O     0.98044   0.21475   0.70392   0.00000  Uiso   1.00
O1480  O     0.63814   0.03204   0.76728   0.00000  Uiso   1.00
O1481  O     0.72743   0.02474   0.76318   0.00000  Uiso   1.00
O1482  O     0.60257   0.04457   0.85946   0.00000  Uiso   1.00
O1483  O     0.51330   0.03910   0.85468   0.00000  Uiso   1.00
O1484  O     0.76432   0.04406   0.85665   0.00000  Uiso   1.00
O1485  O     0.85322   0.03978   0.85434   0.00000  Uiso   1.00
O1486  O     0.76239   0.09043   0.82479   0.00000  Uiso   1.00
O1487  O     0.51034   0.08889   0.82452   0.00000  Uiso   1.00
O1488  O     0.85252   0.08995   0.83063   0.00000  Uiso   1.00
O1489  O     0.60227   0.09580   0.83426   0.00000  Uiso   1.00
O1490  O     0.72871   0.46120   0.14599   0.00000  Uiso   1.00
O1491  O     0.98257   0.45857   0.14588   0.00000  Uiso   1.00
O1492  O     0.64191   0.41115   0.17707   0.00000  Uiso   1.00
O1493  O     0.88894   0.40975   0.17535   0.00000  Uiso   1.00
O1494  O     0.89490   0.45182   0.13798   0.00000  Uiso   1.00
O1495  O     0.63824   0.45276   0.14063   0.00000  Uiso   1.00
O1496  O     0.73288   0.41636   0.18088   0.00000  Uiso   1.00
O1497  O     0.97774   0.41411   0.18241   0.00000  Uiso   1.00
O1498  O     0.60523   0.47237   0.23546   0.00000  Uiso   1.00
O1499  O     0.86058   0.28127   0.29652   0.00000  Uiso   1.00
O1500  O     0.77260   0.28960   0.29279   0.00000  Uiso   1.00
O1501  O     0.85508   0.46876   0.23547   0.00000  Uiso   1.00
O1502  O     0.51802   0.28360   0.29178   0.00000  Uiso   1.00
O1503  O     0.98263   0.27794   0.22857   0.00000  Uiso   1.00
O1504  O     0.72986   0.27405   0.22635   0.00000  Uiso   1.00
O1505  O     0.51595   0.47728   0.24063   0.00000  Uiso   1.00
O1506  O     0.60714   0.28607   0.28835   0.00000  Uiso   1.00
O1507  O     0.89443   0.26728   0.22143   0.00000  Uiso   1.00
O1508  O     0.64071   0.26773   0.21763   0.00000  Uiso   1.00
O1509  O     0.76573   0.47734   0.23896   0.00000  Uiso   1.00
O1510  O     0.52497   0.46475   0.44304   0.00000  Uiso   1.00
O1511  O     0.77256   0.47117   0.44527   0.00000  Uiso   1.00
O1512  O     0.61544   0.46667   0.44747   0.00000  Uiso   1.00
O1513  O     0.86113   0.47301   0.44314   0.00000  Uiso   1.00
O1514  O     0.64729   0.49870   0.50236   0.00000  Uiso   1.00
O1515  O     0.73623   0.47394   0.65556   0.00000  Uiso   1.00
O1516  O     0.98179   0.43491   0.69878   0.00000  Uiso   1.00
O1517  O     0.85640   0.29766   0.79533   0.00000  Uiso   1.00
O1518  O     0.64371   0.29314   0.74617   0.00000  Uiso   1.00
O1519  O     0.98407   0.46955   0.65339   0.00000  Uiso   1.00
O1520  O     0.73268   0.43816   0.70145   0.00000  Uiso   1.00
O1521  O     0.64617   0.47289   0.65458   0.00000  Uiso   1.00
O1522  O     0.72996   0.28354   0.73435   0.00000  Uiso   1.00
O1523  O     0.64406   0.43574   0.69820   0.00000  Uiso   1.00
O1524  O     0.89405   0.47194   0.65414   0.00000  Uiso   1.00
O1525  O     0.88481   0.28506   0.73361   0.00000  Uiso   1.00
O1526  O     0.52106   0.49771   0.75289   0.00000  Uiso   1.00
O1527  O     0.97291   0.28627   0.73150   0.00000  Uiso   1.00
O1528  O     0.60843   0.49836   0.75289   0.00000  Uiso   1.00
O1529  O     0.89551   0.43300   0.69237   0.00000  Uiso   1.00
O1530  O     0.76812   0.29925   0.79505   0.00000  Uiso   1.00
O1531  O     0.52212   0.29911   0.79217   0.00000  Uiso   1.00
O1532  O     0.76531   0.48299   0.94801   0.00000  Uiso   1.00
O1533  O     0.60676   0.48141   0.95055   0.00000  Uiso   1.00
O1534  O     0.85619   0.48444   0.95216   0.00000  Uiso   1.00
O1535  O     0.51593   0.48030   0.94922   0.00000  Uiso   1.00
O1536  O     0.60887   0.29560   0.80027   0.00000  Uiso   1.00
O1537  O     0.97906   0.58149   0.02187   0.00000  Uiso   1.00
O1538  O     0.72770   0.50786   0.00518   0.00000  Uiso   1.00
O1539  O     0.73374   0.58217   0.02384   0.00000  Uiso   1.00
O1540  O     0.89144   0.58043   0.02517   0.00000  Uiso   1.00
O1541  O     0.64224   0.58033   0.02214   0.00000  Uiso   1.00
O1542  O     0.63924   0.51283   0.00750   0.00000  Uiso   1.00
O1543  O     0.85641   0.50653   0.19656   0.00000  Uiso   1.00
O1544  O     0.98458   0.51013   0.00792   0.00000  Uiso   1.00
O1545  O     0.89459   0.50715   0.00559   0.00000  Uiso   1.00
O1546  O     0.90178   0.72591   0.21235   0.00000  Uiso   1.00
O1547  O     0.64811   0.72197   0.21439   0.00000  Uiso   1.00
O1548  O     0.86914   0.70038   0.25009   0.00000  Uiso   1.00
O1549  O     0.98998   0.71782   0.21060   0.00000  Uiso   1.00
O1550  O     0.52199   0.70204   0.25868   0.00000  Uiso   1.00
O1551  O     0.61194   0.70590   0.26565   0.00000  Uiso   1.00
O1552  O     0.60440   0.51077   0.20436   0.00000  Uiso   1.00
O1553  O     0.73599   0.71507   0.21372   0.00000  Uiso   1.00
O1554  O     0.78298   0.70163   0.26052   0.00000  Uiso   1.00
O1555  O     0.51501   0.51317   0.20633   0.00000  Uiso   1.00
O1556  O     0.76827   0.51250   0.20957   0.00000  Uiso   1.00
O1557  O     0.60944   0.51192   0.42446   0.00000  Uiso   1.00
O1558  O     0.98637   0.56994   0.50599   0.00000  Uiso   1.00
O1559  O     0.89761   0.57068   0.51386   0.00000  Uiso   1.00
O1560  O     0.64634   0.56833   0.50908   0.00000  Uiso   1.00
O1561  O     0.73702   0.57070   0.51074   0.00000  Uiso   1.00
O1562  O     0.85748   0.53167   0.42909   0.00000  Uiso   1.00
O1563  O     0.51995   0.51588   0.42437   0.00000  Uiso   1.00
O1564  O     0.76806   0.52065   0.42597   0.00000  Uiso   1.00
O1565  O     0.73479   0.50129   0.50032   0.00000  Uiso   1.00
O1566  O     0.89500   0.50396   0.50046   0.00000  Uiso   1.00
O1567  O     0.98485   0.50034   0.49891   0.00000  Uiso   1.00
O1568  O     0.51433   0.71085   0.73840   0.00000  Uiso   1.00
O1569  O     0.89259   0.72931   0.68549   0.00000  Uiso   1.00
O1570  O     0.76909   0.53066   0.70922   0.00000  Uiso   1.00
O1571  O     0.64640   0.73284   0.69216   0.00000  Uiso   1.00
O1572  O     0.60297   0.71075   0.73824   0.00000  Uiso   1.00
O1573  O     0.73323   0.72410   0.69287   0.00000  Uiso   1.00
O1574  O     0.85674   0.70832   0.73243   0.00000  Uiso   1.00
O1575  O     0.76681   0.71128   0.74345   0.00000  Uiso   1.00
O1576  O     0.51715   0.52518   0.70724   0.00000  Uiso   1.00
O1577  O     0.98108   0.72676   0.69062   0.00000  Uiso   1.00
O1578  O     0.60562   0.53010   0.71271   0.00000  Uiso   1.00
O1579  O     0.85776   0.52634   0.70607   0.00000  Uiso   1.00
O1580  O     0.85891   0.50019   0.75089   0.00000  Uiso   1.00
O1581  O     0.77115   0.50644   0.75536   0.00000  Uiso   1.00
O1582  O     0.85569   0.54187   0.94200   0.00000  Uiso   1.00
O1583  O     0.60460   0.53479   0.93730   0.00000  Uiso   1.00
O1584  O     0.51599   0.53358   0.93370   0.00000  Uiso   1.00
O1585  O     0.76701   0.54189   0.93991   0.00000  Uiso   1.00
O1586  O     0.98170   0.96455   0.06238   0.00000  Uiso   1.00
O1587  O     0.89322   0.96523   0.06135   0.00000  Uiso   1.00
O1588  O     0.64435   0.96189   0.06122   0.00000  Uiso   1.00
O1589  O     0.73560   0.96020   0.06041   0.00000  Uiso   1.00
O1590  O     0.60076   0.99766   0.00140   0.00000  Uiso   1.00
O1591  O     0.77114   0.77127   0.31160   0.00000  Uiso   1.00
O1592  O     0.86170   0.77646   0.31361   0.00000  Uiso   1.00
O1593  O     0.98736   0.79402   0.26036   0.00000  Uiso   1.00
O1594  O     0.64315   0.97081   0.28988   0.00000  Uiso   1.00
O1595  O     0.65169   0.79279   0.27004   0.00000  Uiso   1.00
O1596  O     0.52239   0.77201   0.31278   0.00000  Uiso   1.00
O1597  O     0.61284   0.77424   0.31402   0.00000  Uiso   1.00
O1598  O     0.74082   0.78991   0.26238   0.00000  Uiso   1.00
O1599  O     0.89844   0.79641   0.26733   0.00000  Uiso   1.00
O1600  O     0.72932   0.97323   0.29116   0.00000  Uiso   1.00
O1601  O     0.98422   0.97721   0.29265   0.00000  Uiso   1.00
O1602  O     0.89436   0.97700   0.29757   0.00000  Uiso   1.00
O1603  O     0.64648   0.99802   0.24699   0.00000  Uiso   1.00
O1604  O     0.89451   0.97107   0.57202   0.00000  Uiso   1.00
O1605  O     0.72755   0.97836   0.57452   0.00000  Uiso   1.00
O1606  O     0.52054   0.93397   0.49069   0.00000  Uiso   1.00
O1607  O     0.60926   0.93582   0.48999   0.00000  Uiso   1.00
O1608  O     0.85253   0.92591   0.49359   0.00000  Uiso   1.00
O1609  O     0.76350   0.92538   0.49438   0.00000  Uiso   1.00
O1610  O     0.98390   0.97955   0.57295   0.00000  Uiso   1.00
O1611  O     0.63820   0.98679   0.57784   0.00000  Uiso   1.00
O1612  O     0.76153   0.99007   0.49572   0.00000  Uiso   1.00
O1613  O     0.85128   0.99371   0.49816   0.00000  Uiso   1.00
O1614  O     0.89726   0.79975   0.74208   0.00000  Uiso   1.00
O1615  O     0.77201   0.77559   0.79329   0.00000  Uiso   1.00
O1616  O     0.97855   0.99348   0.79453   0.00000  Uiso   1.00
O1617  O     0.64434   0.80303   0.74755   0.00000  Uiso   1.00
O1618  O     0.73265   0.80181   0.75065   0.00000  Uiso   1.00
O1619  O     0.86069   0.78125   0.78761   0.00000  Uiso   1.00
O1620  O     0.98507   0.79844   0.74067   0.00000  Uiso   1.00
O1621  O     0.51527   0.78086   0.78997   0.00000  Uiso   1.00
O1622  O     0.60629   0.78256   0.79281   0.00000  Uiso   1.00
O1623  O     0.89157   0.99119   0.79837   0.00000  Uiso   1.00
O1624  O     0.60877   0.92164   0.97516   0.00000  Uiso   1.00
O1625  O     0.51925   0.91655   0.97945   0.00000  Uiso   1.00
O1626  O     0.86245   0.92368   0.97489   0.00000  Uiso   1.00
O1627  O     0.77305   0.91775   0.98047   0.00000  Uiso   1.00
O1628  O     0.64314   0.99470   0.80300   0.00000  Uiso   1.00
O1629  O     0.51139   0.98635   0.99197   0.00000  Uiso   1.00
O1630  O     0.77046   0.98810   0.99067   0.00000  Uiso   1.00
O1631  O     0.73122   0.99629   0.80213   0.00000  Uiso   1.00
O1632  O     0.85853   0.99257   0.99123   0.00000  Uiso   1.00
O1633  O     0.31214   0.24528   0.23101   0.00000  Uiso   1.00
O1634  O     0.18621   0.04138   0.31462   0.00000  Uiso   1.00
O1635  O     0.43573   0.04300   0.31162   0.00000  Uiso   1.00
O1636  O     0.05929   0.00143   0.27864   0.00000  Uiso   1.00
O1637  O     0.30970   0.00470   0.27579   0.00000  Uiso   1.00
O1638  O     0.43779   0.24740   0.26758   0.00000  Uiso   1.00
O1639  O     0.05979   0.24927   0.22970   0.00000  Uiso   1.00
O1640  O     0.31243   0.24206   0.72941   0.00000  Uiso   1.00
O1641  O     0.30816   0.02283   0.79443   0.00000  Uiso   1.00
O1642  O     0.05391   0.01919   0.79260   0.00000  Uiso   1.00
O1643  O     0.43285   0.05805   0.83345   0.00000  Uiso   1.00
O1644  O     0.18032   0.05571   0.82946   0.00000  Uiso   1.00
O1645  O     0.30816   0.44583   0.16867   0.00000  Uiso   1.00
O1646  O     0.05905   0.44042   0.16902   0.00000  Uiso   1.00
O1647  O     0.18431   0.25557   0.26776   0.00000  Uiso   1.00
O1648  O     0.18177   0.48198   0.20649   0.00000  Uiso   1.00
O1649  O     0.43240   0.48170   0.20635   0.00000  Uiso   1.00
O1650  O     0.43823   0.49530   0.71631   0.00000  Uiso   1.00
O1651  O     0.06200   0.45565   0.68614   0.00000  Uiso   1.00
O1652  O     0.31615   0.45524   0.68357   0.00000  Uiso   1.00
O1653  O     0.05929   0.25756   0.73016   0.00000  Uiso   1.00
O1654  O     0.18969   0.49061   0.72076   0.00000  Uiso   1.00
O1655  O     0.18122   0.25323   0.76612   0.00000  Uiso   1.00
O1656  O     0.43762   0.25133   0.77207   0.00000  Uiso   1.00
O1657  O     0.44299   0.73673   0.27406   0.00000  Uiso   1.00
O1658  O     0.19366   0.73834   0.27558   0.00000  Uiso   1.00
O1659  O     0.31776   0.74558   0.24269   0.00000  Uiso   1.00
O1660  O     0.44239   0.52296   0.45498   0.00000  Uiso   1.00
O1661  O     0.31618   0.53852   0.48683   0.00000  Uiso   1.00
O1662  O     0.06574   0.54167   0.48618   0.00000  Uiso   1.00
O1663  O     0.19297   0.51603   0.44968   0.00000  Uiso   1.00
O1664  O     0.18736   0.53826   0.96290   0.00000  Uiso   1.00
O1665  O     0.43427   0.53470   0.96190   0.00000  Uiso   1.00
O1666  O     0.06162   0.55420   0.99852   0.00000  Uiso   1.00
O1667  O     0.31206   0.55601   0.99884   0.00000  Uiso   1.00
O1668  O     0.43984   0.94208   0.00206   0.00000  Uiso   1.00
O1669  O     0.31263   0.96612   0.04245   0.00000  Uiso   1.00
O1670  O     0.06557   0.96438   0.03780   0.00000  Uiso   1.00
O1671  O     0.18827   0.95110   0.00400   0.00000  Uiso   1.00
O1672  O     0.06764   0.75842   0.25254   0.00000  Uiso   1.00
O1673  O     0.18487   0.95897   0.50963   0.00000  Uiso   1.00
O1674  O     0.43623   0.95748   0.51276   0.00000  Uiso   1.00
O1675  O     0.06154   0.98069   0.54783   0.00000  Uiso   1.00
O1676  O     0.31151   0.97773   0.54722   0.00000  Uiso   1.00
O1677  O     0.05879   0.76024   0.72141   0.00000  Uiso   1.00
O1678  O     0.30987   0.76009   0.72647   0.00000  Uiso   1.00
O1679  O     0.43690   0.75626   0.75918   0.00000  Uiso   1.00
O1680  O     0.18566   0.75202   0.75581   0.00000  Uiso   1.00
O1681  O     0.68650   0.04250   0.31266   0.00000  Uiso   1.00
O1682  O     0.81039   0.00402   0.27948   0.00000  Uiso   1.00
O1683  O     0.93501   0.04382   0.31439   0.00000  Uiso   1.00
O1684  O     0.56125   0.00699   0.27778   0.00000  Uiso   1.00
O1685  O     0.81239   0.24711   0.22903   0.00000  Uiso   1.00
O1686  O     0.55910   0.23887   0.22386   0.00000  Uiso   1.00
O1687  O     0.55937   0.02591   0.79165   0.00000  Uiso   1.00
O1688  O     0.80875   0.02580   0.79176   0.00000  Uiso   1.00
O1689  O     0.56628   0.24377   0.73261   0.00000  Uiso   1.00
O1690  O     0.81536   0.24054   0.73021   0.00000  Uiso   1.00
O1691  O     0.69011   0.24766   0.76768   0.00000  Uiso   1.00
O1692  O     0.68326   0.06325   0.83082   0.00000  Uiso   1.00
O1693  O     0.93247   0.06228   0.83120   0.00000  Uiso   1.00
O1694  O     0.80495   0.44196   0.16771   0.00000  Uiso   1.00
O1695  O     0.55840   0.44220   0.17119   0.00000  Uiso   1.00
O1696  O     0.68515   0.25124   0.26728   0.00000  Uiso   1.00
O1697  O     0.93321   0.47487   0.20686   0.00000  Uiso   1.00
O1698  O     0.68259   0.47884   0.20906   0.00000  Uiso   1.00
O1699  O     0.93720   0.25109   0.27033   0.00000  Uiso   1.00
O1700  O     0.56301   0.46024   0.68021   0.00000  Uiso   1.00
O1701  O     0.81380   0.46200   0.68886   0.00000  Uiso   1.00
O1702  O     0.94047   0.49858   0.72059   0.00000  Uiso   1.00
O1703  O     0.94087   0.25769   0.77168   0.00000  Uiso   1.00
O1704  O     0.81315   0.55280   0.00109   0.00000  Uiso   1.00
O1705  O     0.69558   0.74190   0.27800   0.00000  Uiso   1.00
O1706  O     0.94376   0.74884   0.28182   0.00000  Uiso   1.00
O1707  O     0.69082   0.52197   0.45119   0.00000  Uiso   1.00
O1708  O     0.56438   0.53954   0.48782   0.00000  Uiso   1.00
O1709  O     0.81513   0.54444   0.48605   0.00000  Uiso   1.00
O1710  O     0.94203   0.52291   0.45033   0.00000  Uiso   1.00
O1711  O     0.93496   0.74943   0.75346   0.00000  Uiso   1.00
O1712  O     0.68820   0.50093   0.71951   0.00000  Uiso   1.00
O1713  O     0.68704   0.74973   0.75922   0.00000  Uiso   1.00
O1714  O     0.93451   0.53833   0.96478   0.00000  Uiso   1.00
O1715  O     0.68499   0.53756   0.96252   0.00000  Uiso   1.00
O1716  O     0.55996   0.55145   0.99662   0.00000  Uiso   1.00
O1717  O     0.81810   0.96689   0.03654   0.00000  Uiso   1.00
O1718  O     0.56477   0.95889   0.03532   0.00000  Uiso   1.00
O1719  O     0.94154   0.94728   0.00006   0.00000  Uiso   1.00
O1720  O     0.81824   0.75526   0.24789   0.00000  Uiso   1.00
O1721  O     0.56970   0.75265   0.24897   0.00000  Uiso   1.00
O1722  O     0.56191   0.98067   0.55055   0.00000  Uiso   1.00
O1723  O     0.93648   0.95692   0.51100   0.00000  Uiso   1.00
O1724  O     0.68288   0.96078   0.51498   0.00000  Uiso   1.00
O1725  O     0.80899   0.97680   0.55007   0.00000  Uiso   1.00
O1726  O     0.81039   0.76429   0.72680   0.00000  Uiso   1.00
O1727  O     0.56449   0.76328   0.72927   0.00000  Uiso   1.00
O1728  O     0.68983   0.94796   0.99985   0.00000  Uiso   1.00
